* NGSPICE file created from wrapped_multiplier_8.ext - technology: gf180mcuC

* Black-box entry subcircuit for gf180mcu_fd_sc_mcu7t5v0__fill_1 abstract view
.subckt gf180mcu_fd_sc_mcu7t5v0__fill_1 VDD VSS
.ends

* Black-box entry subcircuit for gf180mcu_fd_sc_mcu7t5v0__filltie abstract view
.subckt gf180mcu_fd_sc_mcu7t5v0__filltie VDD VSS
.ends

* Black-box entry subcircuit for gf180mcu_fd_sc_mcu7t5v0__fillcap_64 abstract view
.subckt gf180mcu_fd_sc_mcu7t5v0__fillcap_64 VDD VSS
.ends

* Black-box entry subcircuit for gf180mcu_fd_sc_mcu7t5v0__fillcap_4 abstract view
.subckt gf180mcu_fd_sc_mcu7t5v0__fillcap_4 VDD VSS
.ends

* Black-box entry subcircuit for gf180mcu_fd_sc_mcu7t5v0__fill_2 abstract view
.subckt gf180mcu_fd_sc_mcu7t5v0__fill_2 VDD VSS
.ends

* Black-box entry subcircuit for gf180mcu_fd_sc_mcu7t5v0__tiel abstract view
.subckt gf180mcu_fd_sc_mcu7t5v0__tiel ZN VDD VSS
.ends

* Black-box entry subcircuit for gf180mcu_fd_sc_mcu7t5v0__tieh abstract view
.subckt gf180mcu_fd_sc_mcu7t5v0__tieh Z VDD VSS
.ends

* Black-box entry subcircuit for gf180mcu_fd_sc_mcu7t5v0__fillcap_32 abstract view
.subckt gf180mcu_fd_sc_mcu7t5v0__fillcap_32 VDD VSS
.ends

* Black-box entry subcircuit for gf180mcu_fd_sc_mcu7t5v0__fillcap_8 abstract view
.subckt gf180mcu_fd_sc_mcu7t5v0__fillcap_8 VDD VSS
.ends

* Black-box entry subcircuit for gf180mcu_fd_sc_mcu7t5v0__endcap abstract view
.subckt gf180mcu_fd_sc_mcu7t5v0__endcap VDD VSS
.ends

* Black-box entry subcircuit for gf180mcu_fd_sc_mcu7t5v0__fillcap_16 abstract view
.subckt gf180mcu_fd_sc_mcu7t5v0__fillcap_16 VDD VSS
.ends

.subckt wrapped_multiplier_8 io_in[0] io_in[10] io_in[11] io_in[12] io_in[13] io_in[14]
+ io_in[15] io_in[16] io_in[17] io_in[18] io_in[19] io_in[1] io_in[20] io_in[21] io_in[22]
+ io_in[23] io_in[24] io_in[25] io_in[26] io_in[27] io_in[28] io_in[29] io_in[2] io_in[30]
+ io_in[31] io_in[32] io_in[33] io_in[34] io_in[35] io_in[36] io_in[37] io_in[3] io_in[4]
+ io_in[5] io_in[6] io_in[7] io_in[8] io_in[9] io_oeb[0] io_oeb[10] io_oeb[11] io_oeb[12]
+ io_oeb[13] io_oeb[14] io_oeb[15] io_oeb[16] io_oeb[17] io_oeb[18] io_oeb[19] io_oeb[1]
+ io_oeb[20] io_oeb[21] io_oeb[22] io_oeb[23] io_oeb[24] io_oeb[25] io_oeb[26] io_oeb[27]
+ io_oeb[28] io_oeb[29] io_oeb[2] io_oeb[30] io_oeb[31] io_oeb[32] io_oeb[33] io_oeb[34]
+ io_oeb[35] io_oeb[36] io_oeb[37] io_oeb[3] io_oeb[4] io_oeb[5] io_oeb[6] io_oeb[7]
+ io_oeb[8] io_oeb[9] io_out[0] io_out[10] io_out[11] io_out[12] io_out[13] io_out[14]
+ io_out[15] io_out[16] io_out[17] io_out[18] io_out[19] io_out[1] io_out[20] io_out[21]
+ io_out[22] io_out[23] io_out[24] io_out[25] io_out[26] io_out[27] io_out[28] io_out[29]
+ io_out[2] io_out[30] io_out[31] io_out[32] io_out[33] io_out[34] io_out[35] io_out[36]
+ io_out[37] io_out[3] io_out[4] io_out[5] io_out[6] io_out[7] io_out[8] io_out[9]
+ vdd vss wb_clk_i wb_rst_i
XFILLER_54_247 vdd vss gf180mcu_fd_sc_mcu7t5v0__fill_1
XTAP_199 vdd vss gf180mcu_fd_sc_mcu7t5v0__filltie
XTAP_188 vdd vss gf180mcu_fd_sc_mcu7t5v0__filltie
XTAP_177 vdd vss gf180mcu_fd_sc_mcu7t5v0__filltie
XFILLER_27_428 vdd vss gf180mcu_fd_sc_mcu7t5v0__fillcap_64
XFILLER_9_137 vdd vss gf180mcu_fd_sc_mcu7t5v0__fillcap_4
XFILLER_13_144 vdd vss gf180mcu_fd_sc_mcu7t5v0__fillcap_64
XFILLER_5_354 vdd vss gf180mcu_fd_sc_mcu7t5v0__fill_1
XFILLER_67_92 vdd vss gf180mcu_fd_sc_mcu7t5v0__fill_2
XFILLER_36_247 vdd vss gf180mcu_fd_sc_mcu7t5v0__fill_1
Xwrapped_multiplier_8_21 io_oeb[36] vdd vss gf180mcu_fd_sc_mcu7t5v0__tiel
Xwrapped_multiplier_8_10 io_oeb[25] vdd vss gf180mcu_fd_sc_mcu7t5v0__tiel
Xwrapped_multiplier_8_76 io_oeb[21] vdd vss gf180mcu_fd_sc_mcu7t5v0__tieh
Xwrapped_multiplier_8_43 io_out[20] vdd vss gf180mcu_fd_sc_mcu7t5v0__tiel
Xwrapped_multiplier_8_65 io_oeb[10] vdd vss gf180mcu_fd_sc_mcu7t5v0__tieh
Xwrapped_multiplier_8_32 io_out[9] vdd vss gf180mcu_fd_sc_mcu7t5v0__tiel
Xwrapped_multiplier_8_54 io_out[31] vdd vss gf180mcu_fd_sc_mcu7t5v0__tiel
XFILLER_50_250 vdd vss gf180mcu_fd_sc_mcu7t5v0__fillcap_64
XFILLER_18_247 vdd vss gf180mcu_fd_sc_mcu7t5v0__fill_1
XFILLER_37_73 vdd vss gf180mcu_fd_sc_mcu7t5v0__fillcap_64
XFILLER_41_283 vdd vss gf180mcu_fd_sc_mcu7t5v0__fill_1
XFILLER_49_350 vdd vss gf180mcu_fd_sc_mcu7t5v0__fillcap_4
XFILLER_20_456 vdd vss gf180mcu_fd_sc_mcu7t5v0__fillcap_4
XFILLER_32_250 vdd vss gf180mcu_fd_sc_mcu7t5v0__fillcap_64
XFILLER_67_191 vdd vss gf180mcu_fd_sc_mcu7t5v0__fill_2
XFILLER_23_283 vdd vss gf180mcu_fd_sc_mcu7t5v0__fill_1
XFILLER_2_176 vdd vss gf180mcu_fd_sc_mcu7t5v0__fill_1
XFILLER_9_66 vdd vss gf180mcu_fd_sc_mcu7t5v0__fillcap_4
XFILLER_14_250 vdd vss gf180mcu_fd_sc_mcu7t5v0__fillcap_64
XFILLER_6_460 vdd vss gf180mcu_fd_sc_mcu7t5v0__fill_1
XFILLER_43_2 vdd vss gf180mcu_fd_sc_mcu7t5v0__fillcap_64
XFILLER_64_172 vdd vss gf180mcu_fd_sc_mcu7t5v0__fillcap_4
XFILLER_52_389 vdd vss gf180mcu_fd_sc_mcu7t5v0__fill_1
XFILLER_40_507 vdd vss gf180mcu_fd_sc_mcu7t5v0__fill_2
XFILLER_31_507 vdd vss gf180mcu_fd_sc_mcu7t5v0__fill_2
XTAP_507 vdd vss gf180mcu_fd_sc_mcu7t5v0__filltie
XFILLER_7_279 vdd vss gf180mcu_fd_sc_mcu7t5v0__fillcap_4
XFILLER_11_286 vdd vss gf180mcu_fd_sc_mcu7t5v0__fillcap_64
XTAP_529 vdd vss gf180mcu_fd_sc_mcu7t5v0__filltie
XTAP_518 vdd vss gf180mcu_fd_sc_mcu7t5v0__filltie
XFILLER_3_496 vdd vss gf180mcu_fd_sc_mcu7t5v0__fill_1
XFILLER_22_507 vdd vss gf180mcu_fd_sc_mcu7t5v0__fill_2
XFILLER_34_389 vdd vss gf180mcu_fd_sc_mcu7t5v0__fill_1
XFILLER_46_172 vdd vss gf180mcu_fd_sc_mcu7t5v0__fillcap_4
XFILLER_65_492 vdd vss gf180mcu_fd_sc_mcu7t5v0__fillcap_4
XFILLER_13_507 vdd vss gf180mcu_fd_sc_mcu7t5v0__fill_2
XFILLER_0_422 vdd vss gf180mcu_fd_sc_mcu7t5v0__fillcap_32
XFILLER_16_389 vdd vss gf180mcu_fd_sc_mcu7t5v0__fill_1
XFILLER_28_172 vdd vss gf180mcu_fd_sc_mcu7t5v0__fillcap_4
XFILLER_45_73 vdd vss gf180mcu_fd_sc_mcu7t5v0__fillcap_64
XFILLER_6_34 vdd vss gf180mcu_fd_sc_mcu7t5v0__fill_1
XTAP_304 vdd vss gf180mcu_fd_sc_mcu7t5v0__filltie
XTAP_315 vdd vss gf180mcu_fd_sc_mcu7t5v0__filltie
XTAP_326 vdd vss gf180mcu_fd_sc_mcu7t5v0__filltie
XTAP_337 vdd vss gf180mcu_fd_sc_mcu7t5v0__filltie
XTAP_348 vdd vss gf180mcu_fd_sc_mcu7t5v0__filltie
XFILLER_66_234 vdd vss gf180mcu_fd_sc_mcu7t5v0__fillcap_8
XFILLER_47_492 vdd vss gf180mcu_fd_sc_mcu7t5v0__fillcap_4
XTAP_359 vdd vss gf180mcu_fd_sc_mcu7t5v0__filltie
XFILLER_62_495 vdd vss gf180mcu_fd_sc_mcu7t5v0__fillcap_8
XFILLER_30_392 vdd vss gf180mcu_fd_sc_mcu7t5v0__fillcap_64
XFILLER_57_212 vdd vss gf180mcu_fd_sc_mcu7t5v0__fill_1
XFILLER_1_208 vdd vss gf180mcu_fd_sc_mcu7t5v0__fillcap_4
XFILLER_40_101 vdd vss gf180mcu_fd_sc_mcu7t5v0__fillcap_4
XFILLER_63_215 vdd vss gf180mcu_fd_sc_mcu7t5v0__fillcap_64
XFILLER_29_492 vdd vss gf180mcu_fd_sc_mcu7t5v0__fillcap_4
XFILLER_44_495 vdd vss gf180mcu_fd_sc_mcu7t5v0__fillcap_8
XFILLER_8_385 vdd vss gf180mcu_fd_sc_mcu7t5v0__fillcap_4
XFILLER_12_392 vdd vss gf180mcu_fd_sc_mcu7t5v0__fillcap_64
XTAP_189 vdd vss gf180mcu_fd_sc_mcu7t5v0__filltie
XTAP_178 vdd vss gf180mcu_fd_sc_mcu7t5v0__filltie
XTAP_167 vdd vss gf180mcu_fd_sc_mcu7t5v0__filltie
XTAP_145 vdd vss gf180mcu_fd_sc_mcu7t5v0__filltie
XTAP_156 vdd vss gf180mcu_fd_sc_mcu7t5v0__filltie
XFILLER_39_212 vdd vss gf180mcu_fd_sc_mcu7t5v0__fill_1
XFILLER_10_318 vdd vss gf180mcu_fd_sc_mcu7t5v0__fill_1
XFILLER_22_101 vdd vss gf180mcu_fd_sc_mcu7t5v0__fillcap_4
XFILLER_45_215 vdd vss gf180mcu_fd_sc_mcu7t5v0__fillcap_64
XFILLER_26_495 vdd vss gf180mcu_fd_sc_mcu7t5v0__fillcap_8
XFILLER_41_421 vdd vss gf180mcu_fd_sc_mcu7t5v0__fillcap_4
Xwrapped_multiplier_8_22 io_oeb[37] vdd vss gf180mcu_fd_sc_mcu7t5v0__tiel
Xwrapped_multiplier_8_11 io_oeb[26] vdd vss gf180mcu_fd_sc_mcu7t5v0__tiel
XFILLER_67_340 vdd vss gf180mcu_fd_sc_mcu7t5v0__fill_2
Xwrapped_multiplier_8_33 io_out[10] vdd vss gf180mcu_fd_sc_mcu7t5v0__tiel
XFILLER_27_215 vdd vss gf180mcu_fd_sc_mcu7t5v0__fillcap_64
Xwrapped_multiplier_8_55 io_out[32] vdd vss gf180mcu_fd_sc_mcu7t5v0__tiel
Xwrapped_multiplier_8_44 io_out[21] vdd vss gf180mcu_fd_sc_mcu7t5v0__tiel
Xwrapped_multiplier_8_66 io_oeb[11] vdd vss gf180mcu_fd_sc_mcu7t5v0__tieh
XFILLER_23_421 vdd vss gf180mcu_fd_sc_mcu7t5v0__fillcap_4
XFILLER_6_108 vdd vss gf180mcu_fd_sc_mcu7t5v0__fillcap_64
XFILLER_2_314 vdd vss gf180mcu_fd_sc_mcu7t5v0__fillcap_4
XFILLER_53_73 vdd vss gf180mcu_fd_sc_mcu7t5v0__fillcap_64
XFILLER_5_141 vdd vss gf180mcu_fd_sc_mcu7t5v0__fill_1
XFILLER_64_321 vdd vss gf180mcu_fd_sc_mcu7t5v0__fillcap_64
XFILLER_59_137 vdd vss gf180mcu_fd_sc_mcu7t5v0__fillcap_4
XFILLER_55_354 vdd vss gf180mcu_fd_sc_mcu7t5v0__fill_1
XFILLER_7_428 vdd vss gf180mcu_fd_sc_mcu7t5v0__fillcap_64
XFILLER_3_2 vdd vss gf180mcu_fd_sc_mcu7t5v0__fillcap_64
XFILLER_61_357 vdd vss gf180mcu_fd_sc_mcu7t5v0__fillcap_64
XFILLER_0_69 vdd vss gf180mcu_fd_sc_mcu7t5v0__fill_1
XFILLER_46_321 vdd vss gf180mcu_fd_sc_mcu7t5v0__fillcap_64
XFILLER_36_2 vdd vss gf180mcu_fd_sc_mcu7t5v0__fillcap_32
XFILLER_37_354 vdd vss gf180mcu_fd_sc_mcu7t5v0__fill_1
XFILLER_20_243 vdd vss gf180mcu_fd_sc_mcu7t5v0__fillcap_4
XFILLER_28_321 vdd vss gf180mcu_fd_sc_mcu7t5v0__fillcap_64
XFILLER_43_357 vdd vss gf180mcu_fd_sc_mcu7t5v0__fillcap_64
XTAP_519 vdd vss gf180mcu_fd_sc_mcu7t5v0__filltie
XTAP_508 vdd vss gf180mcu_fd_sc_mcu7t5v0__filltie
XFILLER_19_354 vdd vss gf180mcu_fd_sc_mcu7t5v0__fill_1
XFILLER_25_357 vdd vss gf180mcu_fd_sc_mcu7t5v0__fillcap_64
XFILLER_52_176 vdd vss gf180mcu_fd_sc_mcu7t5v0__fill_1
XFILLER_0_489 vdd vss gf180mcu_fd_sc_mcu7t5v0__fill_1
XFILLER_56_460 vdd vss gf180mcu_fd_sc_mcu7t5v0__fill_1
XFILLER_61_73 vdd vss gf180mcu_fd_sc_mcu7t5v0__fillcap_64
XFILLER_3_283 vdd vss gf180mcu_fd_sc_mcu7t5v0__fill_1
XTAP_305 vdd vss gf180mcu_fd_sc_mcu7t5v0__filltie
XTAP_316 vdd vss gf180mcu_fd_sc_mcu7t5v0__filltie
XTAP_327 vdd vss gf180mcu_fd_sc_mcu7t5v0__filltie
XTAP_338 vdd vss gf180mcu_fd_sc_mcu7t5v0__filltie
XTAP_349 vdd vss gf180mcu_fd_sc_mcu7t5v0__filltie
XFILLER_66_246 vdd vss gf180mcu_fd_sc_mcu7t5v0__fill_2
XFILLER_66_213 vdd vss gf180mcu_fd_sc_mcu7t5v0__fill_1
XFILLER_62_463 vdd vss gf180mcu_fd_sc_mcu7t5v0__fillcap_32
XFILLER_34_176 vdd vss gf180mcu_fd_sc_mcu7t5v0__fill_1
XFILLER_57_279 vdd vss gf180mcu_fd_sc_mcu7t5v0__fillcap_4
XFILLER_53_496 vdd vss gf180mcu_fd_sc_mcu7t5v0__fill_1
XFILLER_15_66 vdd vss gf180mcu_fd_sc_mcu7t5v0__fillcap_4
XFILLER_38_460 vdd vss gf180mcu_fd_sc_mcu7t5v0__fill_1
XFILLER_40_179 vdd vss gf180mcu_fd_sc_mcu7t5v0__fillcap_64
XFILLER_16_176 vdd vss gf180mcu_fd_sc_mcu7t5v0__fill_1
XFILLER_44_463 vdd vss gf180mcu_fd_sc_mcu7t5v0__fillcap_32
XTAP_179 vdd vss gf180mcu_fd_sc_mcu7t5v0__filltie
XTAP_168 vdd vss gf180mcu_fd_sc_mcu7t5v0__filltie
XTAP_146 vdd vss gf180mcu_fd_sc_mcu7t5v0__filltie
XTAP_157 vdd vss gf180mcu_fd_sc_mcu7t5v0__filltie
XFILLER_35_496 vdd vss gf180mcu_fd_sc_mcu7t5v0__fill_1
XFILLER_39_279 vdd vss gf180mcu_fd_sc_mcu7t5v0__fillcap_4
XFILLER_22_179 vdd vss gf180mcu_fd_sc_mcu7t5v0__fillcap_64
XFILLER_2_507 vdd vss gf180mcu_fd_sc_mcu7t5v0__fill_2
XFILLER_26_463 vdd vss gf180mcu_fd_sc_mcu7t5v0__fillcap_32
XFILLER_41_499 vdd vss gf180mcu_fd_sc_mcu7t5v0__fillcap_8
XFILLER_67_72 vdd vss gf180mcu_fd_sc_mcu7t5v0__fillcap_4
XFILLER_64_503 vdd vss gf180mcu_fd_sc_mcu7t5v0__fillcap_4
XFILLER_51_208 vdd vss gf180mcu_fd_sc_mcu7t5v0__fillcap_4
XFILLER_17_496 vdd vss gf180mcu_fd_sc_mcu7t5v0__fill_1
XFILLER_8_172 vdd vss gf180mcu_fd_sc_mcu7t5v0__fillcap_4
XFILLER_66_2 vdd vss gf180mcu_fd_sc_mcu7t5v0__fillcap_32
Xwrapped_multiplier_8_56 io_out[33] vdd vss gf180mcu_fd_sc_mcu7t5v0__tiel
Xwrapped_multiplier_8_12 io_oeb[27] vdd vss gf180mcu_fd_sc_mcu7t5v0__tiel
XFILLER_67_363 vdd vss gf180mcu_fd_sc_mcu7t5v0__fill_2
XFILLER_67_352 vdd vss gf180mcu_fd_sc_mcu7t5v0__fill_1
Xwrapped_multiplier_8_45 io_out[22] vdd vss gf180mcu_fd_sc_mcu7t5v0__tiel
Xwrapped_multiplier_8_34 io_out[11] vdd vss gf180mcu_fd_sc_mcu7t5v0__tiel
Xwrapped_multiplier_8_23 io_out[0] vdd vss gf180mcu_fd_sc_mcu7t5v0__tiel
Xwrapped_multiplier_8_67 io_oeb[12] vdd vss gf180mcu_fd_sc_mcu7t5v0__tieh
XFILLER_10_105 vdd vss gf180mcu_fd_sc_mcu7t5v0__fill_1
XFILLER_23_499 vdd vss gf180mcu_fd_sc_mcu7t5v0__fillcap_8
XFILLER_12_34 vdd vss gf180mcu_fd_sc_mcu7t5v0__fill_1
XFILLER_58_385 vdd vss gf180mcu_fd_sc_mcu7t5v0__fillcap_4
XFILLER_46_503 vdd vss gf180mcu_fd_sc_mcu7t5v0__fillcap_4
XFILLER_33_208 vdd vss gf180mcu_fd_sc_mcu7t5v0__fillcap_4
XFILLER_9_492 vdd vss gf180mcu_fd_sc_mcu7t5v0__fillcap_4
XFILLER_15_208 vdd vss gf180mcu_fd_sc_mcu7t5v0__fillcap_4
XFILLER_28_503 vdd vss gf180mcu_fd_sc_mcu7t5v0__fillcap_4
XFILLER_11_425 vdd vss gf180mcu_fd_sc_mcu7t5v0__fill_1
XFILLER_23_66 vdd vss gf180mcu_fd_sc_mcu7t5v0__fillcap_4
XFILLER_2_101 vdd vss gf180mcu_fd_sc_mcu7t5v0__fillcap_4
XFILLER_0_37 vdd vss gf180mcu_fd_sc_mcu7t5v0__fillcap_32
XFILLER_6_495 vdd vss gf180mcu_fd_sc_mcu7t5v0__fillcap_8
XFILLER_29_2 vdd vss gf180mcu_fd_sc_mcu7t5v0__fillcap_64
XFILLER_56_108 vdd vss gf180mcu_fd_sc_mcu7t5v0__fillcap_64
XFILLER_52_314 vdd vss gf180mcu_fd_sc_mcu7t5v0__fillcap_4
XFILLER_55_141 vdd vss gf180mcu_fd_sc_mcu7t5v0__fill_1
XFILLER_7_215 vdd vss gf180mcu_fd_sc_mcu7t5v0__fillcap_64
XFILLER_59_73 vdd vss gf180mcu_fd_sc_mcu7t5v0__fillcap_64
XTAP_509 vdd vss gf180mcu_fd_sc_mcu7t5v0__filltie
XFILLER_3_421 vdd vss gf180mcu_fd_sc_mcu7t5v0__fillcap_4
XFILLER_34_314 vdd vss gf180mcu_fd_sc_mcu7t5v0__fillcap_4
XFILLER_38_108 vdd vss gf180mcu_fd_sc_mcu7t5v0__fillcap_64
XFILLER_61_144 vdd vss gf180mcu_fd_sc_mcu7t5v0__fillcap_64
XFILLER_57_428 vdd vss gf180mcu_fd_sc_mcu7t5v0__fillcap_64
XFILLER_37_141 vdd vss gf180mcu_fd_sc_mcu7t5v0__fill_1
XFILLER_20_34 vdd vss gf180mcu_fd_sc_mcu7t5v0__fill_1
XFILLER_0_457 vdd vss gf180mcu_fd_sc_mcu7t5v0__fillcap_32
XFILLER_16_314 vdd vss gf180mcu_fd_sc_mcu7t5v0__fillcap_4
XFILLER_43_144 vdd vss gf180mcu_fd_sc_mcu7t5v0__fillcap_64
XTAP_306 vdd vss gf180mcu_fd_sc_mcu7t5v0__filltie
XTAP_317 vdd vss gf180mcu_fd_sc_mcu7t5v0__filltie
XTAP_328 vdd vss gf180mcu_fd_sc_mcu7t5v0__filltie
XTAP_339 vdd vss gf180mcu_fd_sc_mcu7t5v0__filltie
XFILLER_39_428 vdd vss gf180mcu_fd_sc_mcu7t5v0__fillcap_64
XFILLER_19_141 vdd vss gf180mcu_fd_sc_mcu7t5v0__fill_1
XFILLER_25_144 vdd vss gf180mcu_fd_sc_mcu7t5v0__fillcap_64
XFILLER_21_350 vdd vss gf180mcu_fd_sc_mcu7t5v0__fillcap_4
XFILLER_31_66 vdd vss gf180mcu_fd_sc_mcu7t5v0__fillcap_4
XFILLER_48_247 vdd vss gf180mcu_fd_sc_mcu7t5v0__fill_1
XFILLER_8_321 vdd vss gf180mcu_fd_sc_mcu7t5v0__fillcap_64
XFILLER_11_2 vdd vss gf180mcu_fd_sc_mcu7t5v0__fillcap_64
XTAP_169 vdd vss gf180mcu_fd_sc_mcu7t5v0__filltie
XTAP_136 vdd vss gf180mcu_fd_sc_mcu7t5v0__filltie
XTAP_147 vdd vss gf180mcu_fd_sc_mcu7t5v0__filltie
XTAP_158 vdd vss gf180mcu_fd_sc_mcu7t5v0__filltie
XFILLER_62_250 vdd vss gf180mcu_fd_sc_mcu7t5v0__fillcap_64
XFILLER_50_456 vdd vss gf180mcu_fd_sc_mcu7t5v0__fillcap_4
XFILLER_53_283 vdd vss gf180mcu_fd_sc_mcu7t5v0__fill_1
XFILLER_5_357 vdd vss gf180mcu_fd_sc_mcu7t5v0__fillcap_64
XFILLER_67_51 vdd vss gf180mcu_fd_sc_mcu7t5v0__fill_2
XFILLER_32_456 vdd vss gf180mcu_fd_sc_mcu7t5v0__fillcap_4
XFILLER_44_250 vdd vss gf180mcu_fd_sc_mcu7t5v0__fillcap_64
XFILLER_59_2 vdd vss gf180mcu_fd_sc_mcu7t5v0__fillcap_64
Xwrapped_multiplier_8_13 io_oeb[28] vdd vss gf180mcu_fd_sc_mcu7t5v0__tiel
XFILLER_67_375 vdd vss gf180mcu_fd_sc_mcu7t5v0__fill_2
Xwrapped_multiplier_8_68 io_oeb[13] vdd vss gf180mcu_fd_sc_mcu7t5v0__tieh
Xwrapped_multiplier_8_35 io_out[12] vdd vss gf180mcu_fd_sc_mcu7t5v0__tiel
Xwrapped_multiplier_8_24 io_out[1] vdd vss gf180mcu_fd_sc_mcu7t5v0__tiel
Xwrapped_multiplier_8_57 io_out[34] vdd vss gf180mcu_fd_sc_mcu7t5v0__tiel
Xwrapped_multiplier_8_46 io_out[23] vdd vss gf180mcu_fd_sc_mcu7t5v0__tiel
XFILLER_35_283 vdd vss gf180mcu_fd_sc_mcu7t5v0__fill_1
XFILLER_61_507 vdd vss gf180mcu_fd_sc_mcu7t5v0__fill_2
XFILLER_14_456 vdd vss gf180mcu_fd_sc_mcu7t5v0__fillcap_4
XFILLER_26_250 vdd vss gf180mcu_fd_sc_mcu7t5v0__fillcap_64
XFILLER_41_286 vdd vss gf180mcu_fd_sc_mcu7t5v0__fillcap_64
XFILLER_52_507 vdd vss gf180mcu_fd_sc_mcu7t5v0__fill_2
XFILLER_64_389 vdd vss gf180mcu_fd_sc_mcu7t5v0__fill_1
XFILLER_17_283 vdd vss gf180mcu_fd_sc_mcu7t5v0__fill_1
XFILLER_67_150 vdd vss gf180mcu_fd_sc_mcu7t5v0__fill_2
XFILLER_43_507 vdd vss gf180mcu_fd_sc_mcu7t5v0__fill_2
XFILLER_23_286 vdd vss gf180mcu_fd_sc_mcu7t5v0__fillcap_64
XFILLER_2_179 vdd vss gf180mcu_fd_sc_mcu7t5v0__fillcap_64
XFILLER_58_172 vdd vss gf180mcu_fd_sc_mcu7t5v0__fillcap_4
XFILLER_34_507 vdd vss gf180mcu_fd_sc_mcu7t5v0__fill_2
XFILLER_46_389 vdd vss gf180mcu_fd_sc_mcu7t5v0__fill_1
XFILLER_6_463 vdd vss gf180mcu_fd_sc_mcu7t5v0__fillcap_32
XFILLER_25_507 vdd vss gf180mcu_fd_sc_mcu7t5v0__fill_2
XFILLER_60_392 vdd vss gf180mcu_fd_sc_mcu7t5v0__fillcap_64
XFILLER_16_507 vdd vss gf180mcu_fd_sc_mcu7t5v0__fill_2
XFILLER_18_34 vdd vss gf180mcu_fd_sc_mcu7t5v0__fill_1
XFILLER_11_212 vdd vss gf180mcu_fd_sc_mcu7t5v0__fill_1
XFILLER_28_389 vdd vss gf180mcu_fd_sc_mcu7t5v0__fill_1
XFILLER_3_499 vdd vss gf180mcu_fd_sc_mcu7t5v0__fillcap_8
XFILLER_59_492 vdd vss gf180mcu_fd_sc_mcu7t5v0__fillcap_4
XFILLER_42_392 vdd vss gf180mcu_fd_sc_mcu7t5v0__fillcap_64
XFILLER_41_2 vdd vss gf180mcu_fd_sc_mcu7t5v0__fillcap_64
XFILLER_52_101 vdd vss gf180mcu_fd_sc_mcu7t5v0__fillcap_4
XFILLER_1_70 vdd vss gf180mcu_fd_sc_mcu7t5v0__fill_1
XFILLER_40_318 vdd vss gf180mcu_fd_sc_mcu7t5v0__fill_1
XFILLER_56_495 vdd vss gf180mcu_fd_sc_mcu7t5v0__fillcap_8
XFILLER_29_66 vdd vss gf180mcu_fd_sc_mcu7t5v0__fillcap_4
XFILLER_8_503 vdd vss gf180mcu_fd_sc_mcu7t5v0__fillcap_4
XFILLER_24_392 vdd vss gf180mcu_fd_sc_mcu7t5v0__fillcap_64
XFILLER_6_37 vdd vss gf180mcu_fd_sc_mcu7t5v0__fillcap_64
XTAP_307 vdd vss gf180mcu_fd_sc_mcu7t5v0__filltie
XTAP_318 vdd vss gf180mcu_fd_sc_mcu7t5v0__filltie
XTAP_329 vdd vss gf180mcu_fd_sc_mcu7t5v0__filltie
XFILLER_22_318 vdd vss gf180mcu_fd_sc_mcu7t5v0__fill_1
XFILLER_34_101 vdd vss gf180mcu_fd_sc_mcu7t5v0__fillcap_4
XFILLER_57_215 vdd vss gf180mcu_fd_sc_mcu7t5v0__fillcap_64
XFILLER_53_421 vdd vss gf180mcu_fd_sc_mcu7t5v0__fillcap_4
XFILLER_38_495 vdd vss gf180mcu_fd_sc_mcu7t5v0__fillcap_8
XFILLER_0_244 vdd vss gf180mcu_fd_sc_mcu7t5v0__fill_1
XFILLER_16_101 vdd vss gf180mcu_fd_sc_mcu7t5v0__fillcap_4
XFILLER_31_137 vdd vss gf180mcu_fd_sc_mcu7t5v0__fillcap_4
XTAP_137 vdd vss gf180mcu_fd_sc_mcu7t5v0__filltie
XTAP_148 vdd vss gf180mcu_fd_sc_mcu7t5v0__filltie
XTAP_159 vdd vss gf180mcu_fd_sc_mcu7t5v0__filltie
XFILLER_35_421 vdd vss gf180mcu_fd_sc_mcu7t5v0__fillcap_4
XFILLER_39_215 vdd vss gf180mcu_fd_sc_mcu7t5v0__fillcap_64
XFILLER_26_34 vdd vss gf180mcu_fd_sc_mcu7t5v0__fill_1
XFILLER_13_137 vdd vss gf180mcu_fd_sc_mcu7t5v0__fillcap_4
XFILLER_67_63 vdd vss gf180mcu_fd_sc_mcu7t5v0__fill_2
XFILLER_17_421 vdd vss gf180mcu_fd_sc_mcu7t5v0__fillcap_4
Xwrapped_multiplier_8_58 io_out[35] vdd vss gf180mcu_fd_sc_mcu7t5v0__tiel
XFILLER_67_398 vdd vss gf180mcu_fd_sc_mcu7t5v0__fill_2
XFILLER_67_387 vdd vss gf180mcu_fd_sc_mcu7t5v0__fill_1
Xwrapped_multiplier_8_14 io_oeb[29] vdd vss gf180mcu_fd_sc_mcu7t5v0__tiel
Xwrapped_multiplier_8_47 io_out[24] vdd vss gf180mcu_fd_sc_mcu7t5v0__tiel
Xwrapped_multiplier_8_69 io_oeb[14] vdd vss gf180mcu_fd_sc_mcu7t5v0__tieh
Xwrapped_multiplier_8_36 io_out[13] vdd vss gf180mcu_fd_sc_mcu7t5v0__tiel
Xwrapped_multiplier_8_25 io_out[2] vdd vss gf180mcu_fd_sc_mcu7t5v0__tiel
XFILLER_50_243 vdd vss gf180mcu_fd_sc_mcu7t5v0__fillcap_4
XFILLER_58_321 vdd vss gf180mcu_fd_sc_mcu7t5v0__fillcap_64
XTAP_490 vdd vss gf180mcu_fd_sc_mcu7t5v0__filltie
XFILLER_37_66 vdd vss gf180mcu_fd_sc_mcu7t5v0__fillcap_4
XFILLER_5_144 vdd vss gf180mcu_fd_sc_mcu7t5v0__fillcap_64
XFILLER_1_350 vdd vss gf180mcu_fd_sc_mcu7t5v0__fillcap_4
XFILLER_49_354 vdd vss gf180mcu_fd_sc_mcu7t5v0__fill_1
XFILLER_32_243 vdd vss gf180mcu_fd_sc_mcu7t5v0__fillcap_4
XFILLER_67_162 vdd vss gf180mcu_fd_sc_mcu7t5v0__fill_2
XFILLER_55_357 vdd vss gf180mcu_fd_sc_mcu7t5v0__fillcap_64
XFILLER_14_243 vdd vss gf180mcu_fd_sc_mcu7t5v0__fillcap_4
XFILLER_10_460 vdd vss gf180mcu_fd_sc_mcu7t5v0__fill_1
XFILLER_64_176 vdd vss gf180mcu_fd_sc_mcu7t5v0__fill_1
XFILLER_37_357 vdd vss gf180mcu_fd_sc_mcu7t5v0__fillcap_64
XFILLER_34_34 vdd vss gf180mcu_fd_sc_mcu7t5v0__fill_1
XFILLER_11_279 vdd vss gf180mcu_fd_sc_mcu7t5v0__fillcap_4
XFILLER_66_408 vdd vss gf180mcu_fd_sc_mcu7t5v0__fill_2
XFILLER_1_2 vdd vss gf180mcu_fd_sc_mcu7t5v0__fillcap_64
XFILLER_19_357 vdd vss gf180mcu_fd_sc_mcu7t5v0__fillcap_64
XFILLER_46_176 vdd vss gf180mcu_fd_sc_mcu7t5v0__fill_1
XFILLER_6_250 vdd vss gf180mcu_fd_sc_mcu7t5v0__fillcap_64
XFILLER_34_2 vdd vss gf180mcu_fd_sc_mcu7t5v0__fillcap_32
XFILLER_65_496 vdd vss gf180mcu_fd_sc_mcu7t5v0__fill_1
XFILLER_52_179 vdd vss gf180mcu_fd_sc_mcu7t5v0__fillcap_64
XFILLER_56_463 vdd vss gf180mcu_fd_sc_mcu7t5v0__fillcap_32
XFILLER_28_176 vdd vss gf180mcu_fd_sc_mcu7t5v0__fill_1
XFILLER_45_66 vdd vss gf180mcu_fd_sc_mcu7t5v0__fillcap_4
XFILLER_3_286 vdd vss gf180mcu_fd_sc_mcu7t5v0__fillcap_64
XTAP_308 vdd vss gf180mcu_fd_sc_mcu7t5v0__filltie
XTAP_319 vdd vss gf180mcu_fd_sc_mcu7t5v0__filltie
XFILLER_47_496 vdd vss gf180mcu_fd_sc_mcu7t5v0__fill_1
XFILLER_34_179 vdd vss gf180mcu_fd_sc_mcu7t5v0__fillcap_64
XFILLER_30_385 vdd vss gf180mcu_fd_sc_mcu7t5v0__fillcap_4
XFILLER_38_463 vdd vss gf180mcu_fd_sc_mcu7t5v0__fillcap_32
XFILLER_53_499 vdd vss gf180mcu_fd_sc_mcu7t5v0__fillcap_8
XFILLER_40_105 vdd vss gf180mcu_fd_sc_mcu7t5v0__fill_1
XFILLER_5_507 vdd vss gf180mcu_fd_sc_mcu7t5v0__fill_2
XFILLER_0_212 vdd vss gf180mcu_fd_sc_mcu7t5v0__fillcap_32
XFILLER_63_208 vdd vss gf180mcu_fd_sc_mcu7t5v0__fillcap_4
XPHY_130 vdd vss gf180mcu_fd_sc_mcu7t5v0__endcap
XFILLER_16_179 vdd vss gf180mcu_fd_sc_mcu7t5v0__fillcap_64
XFILLER_29_496 vdd vss gf180mcu_fd_sc_mcu7t5v0__fill_1
XFILLER_8_389 vdd vss gf180mcu_fd_sc_mcu7t5v0__fill_1
XFILLER_12_385 vdd vss gf180mcu_fd_sc_mcu7t5v0__fillcap_4
XTAP_138 vdd vss gf180mcu_fd_sc_mcu7t5v0__filltie
XTAP_149 vdd vss gf180mcu_fd_sc_mcu7t5v0__filltie
XFILLER_22_105 vdd vss gf180mcu_fd_sc_mcu7t5v0__fill_1
XFILLER_35_499 vdd vss gf180mcu_fd_sc_mcu7t5v0__fillcap_8
XFILLER_7_70 vdd vss gf180mcu_fd_sc_mcu7t5v0__fill_1
XFILLER_58_503 vdd vss gf180mcu_fd_sc_mcu7t5v0__fillcap_4
XFILLER_45_208 vdd vss gf180mcu_fd_sc_mcu7t5v0__fillcap_4
XFILLER_41_425 vdd vss gf180mcu_fd_sc_mcu7t5v0__fill_1
XFILLER_42_34 vdd vss gf180mcu_fd_sc_mcu7t5v0__fill_1
XFILLER_67_86 vdd vss gf180mcu_fd_sc_mcu7t5v0__fill_2
XFILLER_17_499 vdd vss gf180mcu_fd_sc_mcu7t5v0__fillcap_8
Xwrapped_multiplier_8_15 io_oeb[30] vdd vss gf180mcu_fd_sc_mcu7t5v0__tiel
XFILLER_67_322 vdd vss gf180mcu_fd_sc_mcu7t5v0__fill_2
XFILLER_67_311 vdd vss gf180mcu_fd_sc_mcu7t5v0__fillcap_4
XFILLER_4_392 vdd vss gf180mcu_fd_sc_mcu7t5v0__fillcap_64
XFILLER_27_208 vdd vss gf180mcu_fd_sc_mcu7t5v0__fillcap_4
Xwrapped_multiplier_8_59 io_out[36] vdd vss gf180mcu_fd_sc_mcu7t5v0__tiel
Xwrapped_multiplier_8_48 io_out[25] vdd vss gf180mcu_fd_sc_mcu7t5v0__tiel
Xwrapped_multiplier_8_37 io_out[14] vdd vss gf180mcu_fd_sc_mcu7t5v0__tiel
Xwrapped_multiplier_8_26 io_out[3] vdd vss gf180mcu_fd_sc_mcu7t5v0__tiel
XFILLER_23_425 vdd vss gf180mcu_fd_sc_mcu7t5v0__fill_1
XFILLER_10_108 vdd vss gf180mcu_fd_sc_mcu7t5v0__fillcap_64
XFILLER_12_37 vdd vss gf180mcu_fd_sc_mcu7t5v0__fillcap_64
XFILLER_2_318 vdd vss gf180mcu_fd_sc_mcu7t5v0__fill_1
XTAP_491 vdd vss gf180mcu_fd_sc_mcu7t5v0__filltie
XTAP_480 vdd vss gf180mcu_fd_sc_mcu7t5v0__filltie
Xwrapped_multiplier_8_1 io_oeb[0] vdd vss gf180mcu_fd_sc_mcu7t5v0__tiel
XFILLER_53_66 vdd vss gf180mcu_fd_sc_mcu7t5v0__fillcap_4
XFILLER_64_314 vdd vss gf180mcu_fd_sc_mcu7t5v0__fillcap_4
XFILLER_64_2 vdd vss gf180mcu_fd_sc_mcu7t5v0__fillcap_32
XFILLER_67_185 vdd vss gf180mcu_fd_sc_mcu7t5v0__fill_2
XFILLER_67_174 vdd vss gf180mcu_fd_sc_mcu7t5v0__fill_1
XFILLER_11_428 vdd vss gf180mcu_fd_sc_mcu7t5v0__fillcap_64
XFILLER_46_314 vdd vss gf180mcu_fd_sc_mcu7t5v0__fillcap_4
XFILLER_49_141 vdd vss gf180mcu_fd_sc_mcu7t5v0__fill_1
XFILLER_20_247 vdd vss gf180mcu_fd_sc_mcu7t5v0__fill_1
XFILLER_55_144 vdd vss gf180mcu_fd_sc_mcu7t5v0__fillcap_64
XFILLER_28_314 vdd vss gf180mcu_fd_sc_mcu7t5v0__fillcap_4
XFILLER_51_350 vdd vss gf180mcu_fd_sc_mcu7t5v0__fillcap_4
XFILLER_50_34 vdd vss gf180mcu_fd_sc_mcu7t5v0__fill_1
XFILLER_27_2 vdd vss gf180mcu_fd_sc_mcu7t5v0__fillcap_64
XFILLER_37_144 vdd vss gf180mcu_fd_sc_mcu7t5v0__fillcap_64
XFILLER_33_350 vdd vss gf180mcu_fd_sc_mcu7t5v0__fillcap_4
XFILLER_20_37 vdd vss gf180mcu_fd_sc_mcu7t5v0__fillcap_64
XFILLER_61_66 vdd vss gf180mcu_fd_sc_mcu7t5v0__fillcap_4
XTAP_309 vdd vss gf180mcu_fd_sc_mcu7t5v0__filltie
XFILLER_19_144 vdd vss gf180mcu_fd_sc_mcu7t5v0__fillcap_64
XFILLER_62_456 vdd vss gf180mcu_fd_sc_mcu7t5v0__fillcap_4
XFILLER_15_350 vdd vss gf180mcu_fd_sc_mcu7t5v0__fillcap_4
XFILLER_65_283 vdd vss gf180mcu_fd_sc_mcu7t5v0__fill_1
XFILLER_56_250 vdd vss gf180mcu_fd_sc_mcu7t5v0__fillcap_64
XFILLER_0_279 vdd vss gf180mcu_fd_sc_mcu7t5v0__fill_1
XPHY_131 vdd vss gf180mcu_fd_sc_mcu7t5v0__endcap
XPHY_120 vdd vss gf180mcu_fd_sc_mcu7t5v0__endcap
XFILLER_44_456 vdd vss gf180mcu_fd_sc_mcu7t5v0__fillcap_4
XTAP_139 vdd vss gf180mcu_fd_sc_mcu7t5v0__filltie
XFILLER_47_283 vdd vss gf180mcu_fd_sc_mcu7t5v0__fill_1
XPHY_0 vdd vss gf180mcu_fd_sc_mcu7t5v0__endcap
XFILLER_30_172 vdd vss gf180mcu_fd_sc_mcu7t5v0__fillcap_4
XFILLER_38_250 vdd vss gf180mcu_fd_sc_mcu7t5v0__fillcap_64
XFILLER_53_286 vdd vss gf180mcu_fd_sc_mcu7t5v0__fillcap_64
XFILLER_26_456 vdd vss gf180mcu_fd_sc_mcu7t5v0__fillcap_4
XFILLER_67_98 vdd vss gf180mcu_fd_sc_mcu7t5v0__fill_2
XFILLER_64_507 vdd vss gf180mcu_fd_sc_mcu7t5v0__fill_2
XFILLER_29_283 vdd vss gf180mcu_fd_sc_mcu7t5v0__fill_1
XFILLER_12_172 vdd vss gf180mcu_fd_sc_mcu7t5v0__fillcap_4
XFILLER_8_176 vdd vss gf180mcu_fd_sc_mcu7t5v0__fill_1
Xwrapped_multiplier_8_16 io_oeb[31] vdd vss gf180mcu_fd_sc_mcu7t5v0__tiel
XFILLER_67_334 vdd vss gf180mcu_fd_sc_mcu7t5v0__fill_2
Xwrapped_multiplier_8_38 io_out[15] vdd vss gf180mcu_fd_sc_mcu7t5v0__tiel
Xwrapped_multiplier_8_27 io_out[4] vdd vss gf180mcu_fd_sc_mcu7t5v0__tiel
XFILLER_55_507 vdd vss gf180mcu_fd_sc_mcu7t5v0__fill_2
Xwrapped_multiplier_8_49 io_out[26] vdd vss gf180mcu_fd_sc_mcu7t5v0__tiel
XFILLER_35_286 vdd vss gf180mcu_fd_sc_mcu7t5v0__fillcap_64
XFILLER_31_492 vdd vss gf180mcu_fd_sc_mcu7t5v0__fillcap_4
XFILLER_58_389 vdd vss gf180mcu_fd_sc_mcu7t5v0__fill_1
XTAP_492 vdd vss gf180mcu_fd_sc_mcu7t5v0__filltie
XTAP_481 vdd vss gf180mcu_fd_sc_mcu7t5v0__filltie
XFILLER_46_507 vdd vss gf180mcu_fd_sc_mcu7t5v0__fill_2
XTAP_470 vdd vss gf180mcu_fd_sc_mcu7t5v0__filltie
Xwrapped_multiplier_8_2 io_oeb[1] vdd vss gf180mcu_fd_sc_mcu7t5v0__tiel
XFILLER_41_212 vdd vss gf180mcu_fd_sc_mcu7t5v0__fill_1
XFILLER_37_507 vdd vss gf180mcu_fd_sc_mcu7t5v0__fill_2
XFILLER_17_286 vdd vss gf180mcu_fd_sc_mcu7t5v0__fillcap_64
XFILLER_9_496 vdd vss gf180mcu_fd_sc_mcu7t5v0__fill_1
XFILLER_13_492 vdd vss gf180mcu_fd_sc_mcu7t5v0__fillcap_4
XFILLER_57_2 vdd vss gf180mcu_fd_sc_mcu7t5v0__fillcap_64
XFILLER_67_197 vdd vss gf180mcu_fd_sc_mcu7t5v0__fill_2
XFILLER_67_142 vdd vss gf180mcu_fd_sc_mcu7t5v0__fillcap_4
XFILLER_28_507 vdd vss gf180mcu_fd_sc_mcu7t5v0__fill_2
XFILLER_23_212 vdd vss gf180mcu_fd_sc_mcu7t5v0__fill_1
XFILLER_2_105 vdd vss gf180mcu_fd_sc_mcu7t5v0__fill_1
XFILLER_48_34 vdd vss gf180mcu_fd_sc_mcu7t5v0__fill_1
XFILLER_19_507 vdd vss gf180mcu_fd_sc_mcu7t5v0__fill_2
XFILLER_54_392 vdd vss gf180mcu_fd_sc_mcu7t5v0__fillcap_64
XFILLER_10_495 vdd vss gf180mcu_fd_sc_mcu7t5v0__fillcap_8
XFILLER_13_70 vdd vss gf180mcu_fd_sc_mcu7t5v0__fill_1
XFILLER_64_101 vdd vss gf180mcu_fd_sc_mcu7t5v0__fillcap_4
XFILLER_52_318 vdd vss gf180mcu_fd_sc_mcu7t5v0__fill_1
XFILLER_18_37 vdd vss gf180mcu_fd_sc_mcu7t5v0__fillcap_64
XFILLER_36_392 vdd vss gf180mcu_fd_sc_mcu7t5v0__fillcap_64
XFILLER_11_215 vdd vss gf180mcu_fd_sc_mcu7t5v0__fillcap_64
XFILLER_7_208 vdd vss gf180mcu_fd_sc_mcu7t5v0__fillcap_4
XFILLER_59_66 vdd vss gf180mcu_fd_sc_mcu7t5v0__fillcap_4
XFILLER_3_425 vdd vss gf180mcu_fd_sc_mcu7t5v0__fill_1
XFILLER_46_101 vdd vss gf180mcu_fd_sc_mcu7t5v0__fillcap_4
XFILLER_61_137 vdd vss gf180mcu_fd_sc_mcu7t5v0__fillcap_4
XFILLER_34_318 vdd vss gf180mcu_fd_sc_mcu7t5v0__fill_1
XFILLER_65_421 vdd vss gf180mcu_fd_sc_mcu7t5v0__fillcap_4
XFILLER_1_73 vdd vss gf180mcu_fd_sc_mcu7t5v0__fillcap_64
XFILLER_18_392 vdd vss gf180mcu_fd_sc_mcu7t5v0__fillcap_64
XFILLER_28_101 vdd vss gf180mcu_fd_sc_mcu7t5v0__fillcap_4
XFILLER_16_318 vdd vss gf180mcu_fd_sc_mcu7t5v0__fill_1
XFILLER_43_137 vdd vss gf180mcu_fd_sc_mcu7t5v0__fillcap_4
XFILLER_66_218 vdd vss gf180mcu_fd_sc_mcu7t5v0__fillcap_16
XFILLER_47_421 vdd vss gf180mcu_fd_sc_mcu7t5v0__fillcap_4
XFILLER_30_321 vdd vss gf180mcu_fd_sc_mcu7t5v0__fillcap_64
XFILLER_25_137 vdd vss gf180mcu_fd_sc_mcu7t5v0__fillcap_4
XFILLER_21_354 vdd vss gf180mcu_fd_sc_mcu7t5v0__fill_1
XFILLER_0_247 vdd vss gf180mcu_fd_sc_mcu7t5v0__fillcap_32
XFILLER_56_34 vdd vss gf180mcu_fd_sc_mcu7t5v0__fill_1
XFILLER_29_421 vdd vss gf180mcu_fd_sc_mcu7t5v0__fillcap_4
XPHY_132 vdd vss gf180mcu_fd_sc_mcu7t5v0__endcap
XPHY_121 vdd vss gf180mcu_fd_sc_mcu7t5v0__endcap
XPHY_110 vdd vss gf180mcu_fd_sc_mcu7t5v0__endcap
XFILLER_8_314 vdd vss gf180mcu_fd_sc_mcu7t5v0__fillcap_4
XFILLER_12_321 vdd vss gf180mcu_fd_sc_mcu7t5v0__fillcap_64
XFILLER_21_70 vdd vss gf180mcu_fd_sc_mcu7t5v0__fill_1
XFILLER_62_243 vdd vss gf180mcu_fd_sc_mcu7t5v0__fillcap_4
XPHY_1 vdd vss gf180mcu_fd_sc_mcu7t5v0__endcap
XFILLER_26_37 vdd vss gf180mcu_fd_sc_mcu7t5v0__fillcap_64
XFILLER_44_243 vdd vss gf180mcu_fd_sc_mcu7t5v0__fillcap_4
XFILLER_40_460 vdd vss gf180mcu_fd_sc_mcu7t5v0__fill_1
Xwrapped_multiplier_8_17 io_oeb[32] vdd vss gf180mcu_fd_sc_mcu7t5v0__tiel
XFILLER_67_357 vdd vss gf180mcu_fd_sc_mcu7t5v0__fill_2
XFILLER_67_346 vdd vss gf180mcu_fd_sc_mcu7t5v0__fillcap_4
Xwrapped_multiplier_8_39 io_out[16] vdd vss gf180mcu_fd_sc_mcu7t5v0__tiel
Xwrapped_multiplier_8_28 io_out[5] vdd vss gf180mcu_fd_sc_mcu7t5v0__tiel
XTAP_493 vdd vss gf180mcu_fd_sc_mcu7t5v0__filltie
XTAP_482 vdd vss gf180mcu_fd_sc_mcu7t5v0__filltie
XTAP_471 vdd vss gf180mcu_fd_sc_mcu7t5v0__filltie
XTAP_460 vdd vss gf180mcu_fd_sc_mcu7t5v0__filltie
XFILLER_26_243 vdd vss gf180mcu_fd_sc_mcu7t5v0__fillcap_4
Xwrapped_multiplier_8_3 io_oeb[2] vdd vss gf180mcu_fd_sc_mcu7t5v0__tiel
XFILLER_22_460 vdd vss gf180mcu_fd_sc_mcu7t5v0__fill_1
XFILLER_41_279 vdd vss gf180mcu_fd_sc_mcu7t5v0__fillcap_4
XFILLER_49_357 vdd vss gf180mcu_fd_sc_mcu7t5v0__fillcap_64
XFILLER_67_121 vdd vss gf180mcu_fd_sc_mcu7t5v0__fill_2
XFILLER_23_279 vdd vss gf180mcu_fd_sc_mcu7t5v0__fillcap_4