*SPEF "ieee 1481-1999"
*DESIGN "wrapped_multiplier_8"
*DATE "11:11:11 Fri 11 11, 1111"
*VENDOR "OpenRCX"
*PROGRAM "Parallel Extraction"
*VERSION "1.0"
*DESIGN_FLOW "NAME_SCOPE LOCAL" "PIN_CAP NONE"
*DIVIDER /
*DELIMITER :
*BUS_DELIMITER []
*T_UNIT 1 NS
*C_UNIT 1 PF
*R_UNIT 1 OHM
*L_UNIT 1 HENRY

*NAME_MAP
*1 io_in[0]
*2 io_in[10]
*3 io_in[11]
*4 io_in[12]
*5 io_in[13]
*6 io_in[14]
*7 io_in[15]
*8 io_in[16]
*9 io_in[17]
*10 io_in[18]
*11 io_in[19]
*12 io_in[1]
*13 io_in[20]
*14 io_in[21]
*15 io_in[22]
*16 io_in[23]
*17 io_in[24]
*18 io_in[25]
*19 io_in[26]
*20 io_in[27]
*21 io_in[28]
*22 io_in[29]
*23 io_in[2]
*24 io_in[30]
*25 io_in[31]
*26 io_in[32]
*27 io_in[33]
*28 io_in[34]
*29 io_in[35]
*30 io_in[36]
*31 io_in[37]
*32 io_in[3]
*33 io_in[4]
*34 io_in[5]
*35 io_in[6]
*36 io_in[7]
*37 io_in[8]
*38 io_in[9]
*39 net1
*40 net65
*41 net66
*42 net67
*43 net68
*44 net69
*45 net70
*46 net71
*47 net72
*48 net73
*49 net74
*50 net2
*51 net75
*52 net76
*53 net7
*54 net8
*55 net9
*56 net10
*57 net11
*58 net12
*59 net13
*60 net14
*61 net3
*62 net15
*63 net16
*64 net17
*65 net18
*66 net19
*67 net20
*68 net21
*69 net22
*70 net4
*71 net5
*72 net6
*73 net61
*74 net62
*75 net63
*76 net64
*77 net23
*78 net33
*79 net34
*80 net35
*81 net36
*82 net37
*83 net38
*84 net39
*85 net40
*86 net41
*87 net42
*88 net24
*89 net43
*90 net44
*91 net45
*92 net46
*93 net47
*94 net48
*95 net49
*96 net50
*97 net51
*98 net52
*99 net25
*100 net53
*101 net54
*102 net55
*103 net56
*104 net57
*105 net58
*106 net59
*107 net60
*108 net26
*109 net27
*110 net28
*111 net29
*112 net30
*113 net31
*114 net32
*117 wb_clk_i
*118 wb_rst_i
*119 FILLER_0_104
*120 FILLER_0_107
*121 FILLER_0_139
*122 FILLER_0_142
*123 FILLER_0_174
*124 FILLER_0_177
*125 FILLER_0_2
*126 FILLER_0_209
*127 FILLER_0_212
*128 FILLER_0_244
*129 FILLER_0_247
*130 FILLER_0_279
*131 FILLER_0_282
*132 FILLER_0_314
*133 FILLER_0_317
*134 FILLER_0_34
*135 FILLER_0_349
*136 FILLER_0_352
*137 FILLER_0_37
*138 FILLER_0_384
*139 FILLER_0_387
*140 FILLER_0_419
*141 FILLER_0_422
*142 FILLER_0_454
*143 FILLER_0_457
*144 FILLER_0_489
*145 FILLER_0_492
*146 FILLER_0_508
*147 FILLER_0_69
*148 FILLER_0_72
*149 FILLER_10_101
*150 FILLER_10_105
*151 FILLER_10_108
*152 FILLER_10_172
*153 FILLER_10_176
*154 FILLER_10_179
*155 FILLER_10_2
*156 FILLER_10_243
*157 FILLER_10_247
*158 FILLER_10_250
*159 FILLER_10_314
*160 FILLER_10_318
*161 FILLER_10_321
*162 FILLER_10_34
*163 FILLER_10_37
*164 FILLER_10_385
*165 FILLER_10_389
*166 FILLER_10_392
*167 FILLER_10_456
*168 FILLER_10_460
*169 FILLER_10_463
*170 FILLER_10_495
*171 FILLER_10_503
*172 FILLER_10_507
*173 FILLER_11_137
*174 FILLER_11_141
*175 FILLER_11_144
*176 FILLER_11_2
*177 FILLER_11_208
*178 FILLER_11_212
*179 FILLER_11_215
*180 FILLER_11_279
*181 FILLER_11_283
*182 FILLER_11_286
*183 FILLER_11_350
*184 FILLER_11_354
*185 FILLER_11_357
*186 FILLER_11_421
*187 FILLER_11_425
*188 FILLER_11_428
*189 FILLER_11_492
*190 FILLER_11_496
*191 FILLER_11_499
*192 FILLER_11_507
*193 FILLER_11_66
*194 FILLER_11_70
*195 FILLER_11_73
*196 FILLER_12_101
*197 FILLER_12_105
*198 FILLER_12_108
*199 FILLER_12_172
*200 FILLER_12_176
*201 FILLER_12_179
*202 FILLER_12_2
*203 FILLER_12_243
*204 FILLER_12_247
*205 FILLER_12_250
*206 FILLER_12_314
*207 FILLER_12_318
*208 FILLER_12_321
*209 FILLER_12_34
*210 FILLER_12_37
*211 FILLER_12_385
*212 FILLER_12_389
*213 FILLER_12_392
*214 FILLER_12_456
*215 FILLER_12_460
*216 FILLER_12_463
*217 FILLER_12_495
*218 FILLER_12_503
*219 FILLER_12_507
*220 FILLER_13_137
*221 FILLER_13_141
*222 FILLER_13_144
*223 FILLER_13_2
*224 FILLER_13_208
*225 FILLER_13_212
*226 FILLER_13_215
*227 FILLER_13_279
*228 FILLER_13_283
*229 FILLER_13_286
*230 FILLER_13_350
*231 FILLER_13_354
*232 FILLER_13_357
*233 FILLER_13_421
*234 FILLER_13_425
*235 FILLER_13_428
*236 FILLER_13_492
*237 FILLER_13_496
*238 FILLER_13_499
*239 FILLER_13_507
*240 FILLER_13_66
*241 FILLER_13_70
*242 FILLER_13_73
*243 FILLER_14_101
*244 FILLER_14_105
*245 FILLER_14_108
*246 FILLER_14_172
*247 FILLER_14_176
*248 FILLER_14_179
*249 FILLER_14_2
*250 FILLER_14_243
*251 FILLER_14_247
*252 FILLER_14_250
*253 FILLER_14_314
*254 FILLER_14_318
*255 FILLER_14_321
*256 FILLER_14_34
*257 FILLER_14_37
*258 FILLER_14_385
*259 FILLER_14_389
*260 FILLER_14_392
*261 FILLER_14_456
*262 FILLER_14_460
*263 FILLER_14_463
*264 FILLER_14_495
*265 FILLER_14_503
*266 FILLER_14_507
*267 FILLER_15_137
*268 FILLER_15_141
*269 FILLER_15_144
*270 FILLER_15_2
*271 FILLER_15_208
*272 FILLER_15_212
*273 FILLER_15_215
*274 FILLER_15_279
*275 FILLER_15_283
*276 FILLER_15_286
*277 FILLER_15_350
*278 FILLER_15_354
*279 FILLER_15_357
*280 FILLER_15_421
*281 FILLER_15_425
*282 FILLER_15_428
*283 FILLER_15_492
*284 FILLER_15_496
*285 FILLER_15_499
*286 FILLER_15_507
*287 FILLER_15_66
*288 FILLER_15_70
*289 FILLER_15_73
*290 FILLER_16_101
*291 FILLER_16_105
*292 FILLER_16_108
*293 FILLER_16_172
*294 FILLER_16_176
*295 FILLER_16_179
*296 FILLER_16_2
*297 FILLER_16_243
*298 FILLER_16_247
*299 FILLER_16_250
*300 FILLER_16_314
*301 FILLER_16_318
*302 FILLER_16_321
*303 FILLER_16_34
*304 FILLER_16_37
*305 FILLER_16_385
*306 FILLER_16_389
*307 FILLER_16_392
*308 FILLER_16_456
*309 FILLER_16_460
*310 FILLER_16_463
*311 FILLER_16_495
*312 FILLER_16_503
*313 FILLER_16_507
*314 FILLER_17_137
*315 FILLER_17_141
*316 FILLER_17_144
*317 FILLER_17_2
*318 FILLER_17_208
*319 FILLER_17_212
*320 FILLER_17_215
*321 FILLER_17_279
*322 FILLER_17_283
*323 FILLER_17_286
*324 FILLER_17_350
*325 FILLER_17_354
*326 FILLER_17_357
*327 FILLER_17_421
*328 FILLER_17_425
*329 FILLER_17_428
*330 FILLER_17_492
*331 FILLER_17_496
*332 FILLER_17_499
*333 FILLER_17_507
*334 FILLER_17_66
*335 FILLER_17_70
*336 FILLER_17_73
*337 FILLER_18_101
*338 FILLER_18_105
*339 FILLER_18_108
*340 FILLER_18_172
*341 FILLER_18_176
*342 FILLER_18_179
*343 FILLER_18_2
*344 FILLER_18_243
*345 FILLER_18_247
*346 FILLER_18_250
*347 FILLER_18_314
*348 FILLER_18_318
*349 FILLER_18_321
*350 FILLER_18_34
*351 FILLER_18_37
*352 FILLER_18_385
*353 FILLER_18_389
*354 FILLER_18_392
*355 FILLER_18_456
*356 FILLER_18_460
*357 FILLER_18_463
*358 FILLER_18_495
*359 FILLER_18_503
*360 FILLER_18_507
*361 FILLER_19_137
*362 FILLER_19_141
*363 FILLER_19_144
*364 FILLER_19_2
*365 FILLER_19_208
*366 FILLER_19_212
*367 FILLER_19_215
*368 FILLER_19_279
*369 FILLER_19_283
*370 FILLER_19_286
*371 FILLER_19_350
*372 FILLER_19_354
*373 FILLER_19_357
*374 FILLER_19_421
*375 FILLER_19_425
*376 FILLER_19_428
*377 FILLER_19_492
*378 FILLER_19_496
*379 FILLER_19_499
*380 FILLER_19_507
*381 FILLER_19_66
*382 FILLER_19_70
*383 FILLER_19_73
*384 FILLER_1_137
*385 FILLER_1_141
*386 FILLER_1_144
*387 FILLER_1_2
*388 FILLER_1_208
*389 FILLER_1_212
*390 FILLER_1_215
*391 FILLER_1_279
*392 FILLER_1_283
*393 FILLER_1_286
*394 FILLER_1_350
*395 FILLER_1_354
*396 FILLER_1_357
*397 FILLER_1_421
*398 FILLER_1_425
*399 FILLER_1_428
*400 FILLER_1_492
*401 FILLER_1_496
*402 FILLER_1_499
*403 FILLER_1_507
*404 FILLER_1_66
*405 FILLER_1_70
*406 FILLER_1_73
*407 FILLER_20_101
*408 FILLER_20_105
*409 FILLER_20_108
*410 FILLER_20_172
*411 FILLER_20_176
*412 FILLER_20_179
*413 FILLER_20_2
*414 FILLER_20_243
*415 FILLER_20_247
*416 FILLER_20_250
*417 FILLER_20_314
*418 FILLER_20_318
*419 FILLER_20_321
*420 FILLER_20_34
*421 FILLER_20_37
*422 FILLER_20_385
*423 FILLER_20_389
*424 FILLER_20_392
*425 FILLER_20_456
*426 FILLER_20_460
*427 FILLER_20_463
*428 FILLER_20_495
*429 FILLER_20_503
*430 FILLER_20_507
*431 FILLER_21_137
*432 FILLER_21_141
*433 FILLER_21_144
*434 FILLER_21_2
*435 FILLER_21_208
*436 FILLER_21_212
*437 FILLER_21_215
*438 FILLER_21_279
*439 FILLER_21_283
*440 FILLER_21_286
*441 FILLER_21_350
*442 FILLER_21_354
*443 FILLER_21_357
*444 FILLER_21_421
*445 FILLER_21_425
*446 FILLER_21_428
*447 FILLER_21_492
*448 FILLER_21_496
*449 FILLER_21_499
*450 FILLER_21_507
*451 FILLER_21_66
*452 FILLER_21_70
*453 FILLER_21_73
*454 FILLER_22_101
*455 FILLER_22_105
*456 FILLER_22_108
*457 FILLER_22_172
*458 FILLER_22_176
*459 FILLER_22_179
*460 FILLER_22_2
*461 FILLER_22_243
*462 FILLER_22_247
*463 FILLER_22_250
*464 FILLER_22_314
*465 FILLER_22_318
*466 FILLER_22_321
*467 FILLER_22_34
*468 FILLER_22_37
*469 FILLER_22_385
*470 FILLER_22_389
*471 FILLER_22_392
*472 FILLER_22_456
*473 FILLER_22_460
*474 FILLER_22_463
*475 FILLER_22_495
*476 FILLER_22_503
*477 FILLER_22_507
*478 FILLER_23_137
*479 FILLER_23_141
*480 FILLER_23_144
*481 FILLER_23_2
*482 FILLER_23_208
*483 FILLER_23_212
*484 FILLER_23_215
*485 FILLER_23_279
*486 FILLER_23_283
*487 FILLER_23_286
*488 FILLER_23_350
*489 FILLER_23_354
*490 FILLER_23_357
*491 FILLER_23_421
*492 FILLER_23_425
*493 FILLER_23_428
*494 FILLER_23_492
*495 FILLER_23_496
*496 FILLER_23_499
*497 FILLER_23_507
*498 FILLER_23_66
*499 FILLER_23_70
*500 FILLER_23_73
*501 FILLER_24_101
*502 FILLER_24_105
*503 FILLER_24_108
*504 FILLER_24_172
*505 FILLER_24_176
*506 FILLER_24_179
*507 FILLER_24_2
*508 FILLER_24_243
*509 FILLER_24_247
*510 FILLER_24_250
*511 FILLER_24_314
*512 FILLER_24_318
*513 FILLER_24_321
*514 FILLER_24_34
*515 FILLER_24_37
*516 FILLER_24_385
*517 FILLER_24_389
*518 FILLER_24_392
*519 FILLER_24_456
*520 FILLER_24_460
*521 FILLER_24_463
*522 FILLER_24_495
*523 FILLER_24_503
*524 FILLER_24_507
*525 FILLER_25_137
*526 FILLER_25_141
*527 FILLER_25_144
*528 FILLER_25_2
*529 FILLER_25_208
*530 FILLER_25_212
*531 FILLER_25_215
*532 FILLER_25_279
*533 FILLER_25_283
*534 FILLER_25_286
*535 FILLER_25_350
*536 FILLER_25_354
*537 FILLER_25_357
*538 FILLER_25_421
*539 FILLER_25_425
*540 FILLER_25_428
*541 FILLER_25_492
*542 FILLER_25_496
*543 FILLER_25_499
*544 FILLER_25_507
*545 FILLER_25_66
*546 FILLER_25_70
*547 FILLER_25_73
*548 FILLER_26_101
*549 FILLER_26_105
*550 FILLER_26_108
*551 FILLER_26_172
*552 FILLER_26_176
*553 FILLER_26_179
*554 FILLER_26_2
*555 FILLER_26_243
*556 FILLER_26_247
*557 FILLER_26_250
*558 FILLER_26_314
*559 FILLER_26_318
*560 FILLER_26_321
*561 FILLER_26_34
*562 FILLER_26_37
*563 FILLER_26_385
*564 FILLER_26_389
*565 FILLER_26_392
*566 FILLER_26_456
*567 FILLER_26_460
*568 FILLER_26_463
*569 FILLER_26_495
*570 FILLER_26_503
*571 FILLER_26_507
*572 FILLER_27_137
*573 FILLER_27_141
*574 FILLER_27_144
*575 FILLER_27_2
*576 FILLER_27_208
*577 FILLER_27_212
*578 FILLER_27_215
*579 FILLER_27_279
*580 FILLER_27_283
*581 FILLER_27_286
*582 FILLER_27_350
*583 FILLER_27_354
*584 FILLER_27_357
*585 FILLER_27_421
*586 FILLER_27_425
*587 FILLER_27_428
*588 FILLER_27_492
*589 FILLER_27_496
*590 FILLER_27_499
*591 FILLER_27_507
*592 FILLER_27_66
*593 FILLER_27_70
*594 FILLER_27_73
*595 FILLER_28_101
*596 FILLER_28_105
*597 FILLER_28_108
*598 FILLER_28_172
*599 FILLER_28_176
*600 FILLER_28_179
*601 FILLER_28_2
*602 FILLER_28_243
*603 FILLER_28_247
*604 FILLER_28_250
*605 FILLER_28_314
*606 FILLER_28_318
*607 FILLER_28_321
*608 FILLER_28_34
*609 FILLER_28_37
*610 FILLER_28_385
*611 FILLER_28_389
*612 FILLER_28_392
*613 FILLER_28_456
*614 FILLER_28_460
*615 FILLER_28_463
*616 FILLER_28_495
*617 FILLER_28_503
*618 FILLER_28_507
*619 FILLER_29_137
*620 FILLER_29_141
*621 FILLER_29_144
*622 FILLER_29_2
*623 FILLER_29_208
*624 FILLER_29_212
*625 FILLER_29_215
*626 FILLER_29_279
*627 FILLER_29_283
*628 FILLER_29_286
*629 FILLER_29_350
*630 FILLER_29_354
*631 FILLER_29_357
*632 FILLER_29_421
*633 FILLER_29_425
*634 FILLER_29_428
*635 FILLER_29_492
*636 FILLER_29_496
*637 FILLER_29_499
*638 FILLER_29_507
*639 FILLER_29_66
*640 FILLER_29_70
*641 FILLER_29_73
*642 FILLER_2_101
*643 FILLER_2_105
*644 FILLER_2_108
*645 FILLER_2_172
*646 FILLER_2_176
*647 FILLER_2_179
*648 FILLER_2_2
*649 FILLER_2_243
*650 FILLER_2_247
*651 FILLER_2_250
*652 FILLER_2_314
*653 FILLER_2_318
*654 FILLER_2_321
*655 FILLER_2_34
*656 FILLER_2_37
*657 FILLER_2_385
*658 FILLER_2_389
*659 FILLER_2_392
*660 FILLER_2_456
*661 FILLER_2_460
*662 FILLER_2_463
*663 FILLER_2_495
*664 FILLER_2_503
*665 FILLER_2_507
*666 FILLER_30_101
*667 FILLER_30_105
*668 FILLER_30_108
*669 FILLER_30_172
*670 FILLER_30_176
*671 FILLER_30_179
*672 FILLER_30_2
*673 FILLER_30_243
*674 FILLER_30_247
*675 FILLER_30_250
*676 FILLER_30_314
*677 FILLER_30_318
*678 FILLER_30_321
*679 FILLER_30_34
*680 FILLER_30_37
*681 FILLER_30_385
*682 FILLER_30_389
*683 FILLER_30_392
*684 FILLER_30_456
*685 FILLER_30_460
*686 FILLER_30_463
*687 FILLER_30_495
*688 FILLER_30_503
*689 FILLER_30_507
*690 FILLER_31_137
*691 FILLER_31_141
*692 FILLER_31_144
*693 FILLER_31_2
*694 FILLER_31_208
*695 FILLER_31_212
*696 FILLER_31_215
*697 FILLER_31_279
*698 FILLER_31_283
*699 FILLER_31_286
*700 FILLER_31_350
*701 FILLER_31_354
*702 FILLER_31_357
*703 FILLER_31_421
*704 FILLER_31_425
*705 FILLER_31_428
*706 FILLER_31_492
*707 FILLER_31_496
*708 FILLER_31_499
*709 FILLER_31_507
*710 FILLER_31_66
*711 FILLER_31_70
*712 FILLER_31_73
*713 FILLER_32_101
*714 FILLER_32_105
*715 FILLER_32_108
*716 FILLER_32_172
*717 FILLER_32_176
*718 FILLER_32_179
*719 FILLER_32_2
*720 FILLER_32_243
*721 FILLER_32_247
*722 FILLER_32_250
*723 FILLER_32_314
*724 FILLER_32_318
*725 FILLER_32_321
*726 FILLER_32_34
*727 FILLER_32_37
*728 FILLER_32_385
*729 FILLER_32_389
*730 FILLER_32_392
*731 FILLER_32_456
*732 FILLER_32_460
*733 FILLER_32_463
*734 FILLER_32_495
*735 FILLER_32_503
*736 FILLER_32_507
*737 FILLER_33_137
*738 FILLER_33_141
*739 FILLER_33_144
*740 FILLER_33_2
*741 FILLER_33_208
*742 FILLER_33_212
*743 FILLER_33_215
*744 FILLER_33_279
*745 FILLER_33_283
*746 FILLER_33_286
*747 FILLER_33_350
*748 FILLER_33_354
*749 FILLER_33_357
*750 FILLER_33_421
*751 FILLER_33_425
*752 FILLER_33_428
*753 FILLER_33_492
*754 FILLER_33_496
*755 FILLER_33_499
*756 FILLER_33_507
*757 FILLER_33_66
*758 FILLER_33_70
*759 FILLER_33_73
*760 FILLER_34_101
*761 FILLER_34_105
*762 FILLER_34_108
*763 FILLER_34_172
*764 FILLER_34_176
*765 FILLER_34_179
*766 FILLER_34_2
*767 FILLER_34_243
*768 FILLER_34_247
*769 FILLER_34_250
*770 FILLER_34_314
*771 FILLER_34_318
*772 FILLER_34_321
*773 FILLER_34_34
*774 FILLER_34_37
*775 FILLER_34_385
*776 FILLER_34_389
*777 FILLER_34_392
*778 FILLER_34_456
*779 FILLER_34_460
*780 FILLER_34_463
*781 FILLER_34_495
*782 FILLER_34_503
*783 FILLER_34_507
*784 FILLER_35_137
*785 FILLER_35_141
*786 FILLER_35_144
*787 FILLER_35_2
*788 FILLER_35_208
*789 FILLER_35_212
*790 FILLER_35_215
*791 FILLER_35_279
*792 FILLER_35_283
*793 FILLER_35_286
*794 FILLER_35_350
*795 FILLER_35_354
*796 FILLER_35_357
*797 FILLER_35_421
*798 FILLER_35_425
*799 FILLER_35_428
*800 FILLER_35_492
*801 FILLER_35_496
*802 FILLER_35_499
*803 FILLER_35_507
*804 FILLER_35_66
*805 FILLER_35_70
*806 FILLER_35_73
*807 FILLER_36_101
*808 FILLER_36_105
*809 FILLER_36_108
*810 FILLER_36_172
*811 FILLER_36_176
*812 FILLER_36_179
*813 FILLER_36_2
*814 FILLER_36_243
*815 FILLER_36_247
*816 FILLER_36_250
*817 FILLER_36_314
*818 FILLER_36_318
*819 FILLER_36_321
*820 FILLER_36_34
*821 FILLER_36_37
*822 FILLER_36_385
*823 FILLER_36_389
*824 FILLER_36_392
*825 FILLER_36_456
*826 FILLER_36_460
*827 FILLER_36_463
*828 FILLER_36_495
*829 FILLER_36_503
*830 FILLER_36_507
*831 FILLER_37_137
*832 FILLER_37_141
*833 FILLER_37_144
*834 FILLER_37_2
*835 FILLER_37_208
*836 FILLER_37_212
*837 FILLER_37_215
*838 FILLER_37_279
*839 FILLER_37_283
*840 FILLER_37_286
*841 FILLER_37_350
*842 FILLER_37_354
*843 FILLER_37_357
*844 FILLER_37_421
*845 FILLER_37_425
*846 FILLER_37_428
*847 FILLER_37_492
*848 FILLER_37_496
*849 FILLER_37_499
*850 FILLER_37_507
*851 FILLER_37_66
*852 FILLER_37_70
*853 FILLER_37_73
*854 FILLER_38_101
*855 FILLER_38_105
*856 FILLER_38_108
*857 FILLER_38_172
*858 FILLER_38_176
*859 FILLER_38_179
*860 FILLER_38_2
*861 FILLER_38_243
*862 FILLER_38_247
*863 FILLER_38_250
*864 FILLER_38_314
*865 FILLER_38_318
*866 FILLER_38_321
*867 FILLER_38_34
*868 FILLER_38_37
*869 FILLER_38_385
*870 FILLER_38_389
*871 FILLER_38_392
*872 FILLER_38_456
*873 FILLER_38_460
*874 FILLER_38_463
*875 FILLER_38_495
*876 FILLER_38_503
*877 FILLER_38_507
*878 FILLER_39_137
*879 FILLER_39_141
*880 FILLER_39_144
*881 FILLER_39_2
*882 FILLER_39_208
*883 FILLER_39_212
*884 FILLER_39_215
*885 FILLER_39_279
*886 FILLER_39_283
*887 FILLER_39_286
*888 FILLER_39_350
*889 FILLER_39_354
*890 FILLER_39_357
*891 FILLER_39_421
*892 FILLER_39_425
*893 FILLER_39_428
*894 FILLER_39_492
*895 FILLER_39_496
*896 FILLER_39_499
*897 FILLER_39_507
*898 FILLER_39_66
*899 FILLER_39_70
*900 FILLER_39_73
*901 FILLER_3_137
*902 FILLER_3_141
*903 FILLER_3_144
*904 FILLER_3_2
*905 FILLER_3_208
*906 FILLER_3_212
*907 FILLER_3_215
*908 FILLER_3_279
*909 FILLER_3_283
*910 FILLER_3_286
*911 FILLER_3_350
*912 FILLER_3_354
*913 FILLER_3_357
*914 FILLER_3_421
*915 FILLER_3_425
*916 FILLER_3_428
*917 FILLER_3_492
*918 FILLER_3_496
*919 FILLER_3_499
*920 FILLER_3_507
*921 FILLER_3_66
*922 FILLER_3_70
*923 FILLER_3_73
*924 FILLER_40_101
*925 FILLER_40_105
*926 FILLER_40_108
*927 FILLER_40_172
*928 FILLER_40_176
*929 FILLER_40_179
*930 FILLER_40_2
*931 FILLER_40_243
*932 FILLER_40_247
*933 FILLER_40_250
*934 FILLER_40_314
*935 FILLER_40_318
*936 FILLER_40_321
*937 FILLER_40_34
*938 FILLER_40_37
*939 FILLER_40_385
*940 FILLER_40_389
*941 FILLER_40_392
*942 FILLER_40_456
*943 FILLER_40_460
*944 FILLER_40_463
*945 FILLER_40_495
*946 FILLER_40_503
*947 FILLER_40_507
*948 FILLER_41_137
*949 FILLER_41_141
*950 FILLER_41_144
*951 FILLER_41_2
*952 FILLER_41_208
*953 FILLER_41_212
*954 FILLER_41_215
*955 FILLER_41_279
*956 FILLER_41_283
*957 FILLER_41_286
*958 FILLER_41_350
*959 FILLER_41_354
*960 FILLER_41_357
*961 FILLER_41_421
*962 FILLER_41_425
*963 FILLER_41_428
*964 FILLER_41_492
*965 FILLER_41_496
*966 FILLER_41_499
*967 FILLER_41_507
*968 FILLER_41_66
*969 FILLER_41_70
*970 FILLER_41_73
*971 FILLER_42_101
*972 FILLER_42_105
*973 FILLER_42_108
*974 FILLER_42_172
*975 FILLER_42_176
*976 FILLER_42_179
*977 FILLER_42_2
*978 FILLER_42_243
*979 FILLER_42_247
*980 FILLER_42_250
*981 FILLER_42_314
*982 FILLER_42_318
*983 FILLER_42_321
*984 FILLER_42_34
*985 FILLER_42_37
*986 FILLER_42_385
*987 FILLER_42_389
*988 FILLER_42_392
*989 FILLER_42_456
*990 FILLER_42_460
*991 FILLER_42_463
*992 FILLER_42_495
*993 FILLER_42_503
*994 FILLER_42_507
*995 FILLER_43_137
*996 FILLER_43_141
*997 FILLER_43_144
*998 FILLER_43_2
*999 FILLER_43_208
*1000 FILLER_43_212
*1001 FILLER_43_215
*1002 FILLER_43_279
*1003 FILLER_43_283
*1004 FILLER_43_286
*1005 FILLER_43_350
*1006 FILLER_43_354
*1007 FILLER_43_357
*1008 FILLER_43_421
*1009 FILLER_43_425
*1010 FILLER_43_428
*1011 FILLER_43_492
*1012 FILLER_43_496
*1013 FILLER_43_499
*1014 FILLER_43_507
*1015 FILLER_43_66
*1016 FILLER_43_70
*1017 FILLER_43_73
*1018 FILLER_44_101
*1019 FILLER_44_105
*1020 FILLER_44_108
*1021 FILLER_44_172
*1022 FILLER_44_176
*1023 FILLER_44_179
*1024 FILLER_44_2
*1025 FILLER_44_243
*1026 FILLER_44_247
*1027 FILLER_44_250
*1028 FILLER_44_314
*1029 FILLER_44_318
*1030 FILLER_44_321
*1031 FILLER_44_34
*1032 FILLER_44_37
*1033 FILLER_44_385
*1034 FILLER_44_389
*1035 FILLER_44_392
*1036 FILLER_44_456
*1037 FILLER_44_460
*1038 FILLER_44_463
*1039 FILLER_44_495
*1040 FILLER_44_503
*1041 FILLER_44_507
*1042 FILLER_45_137
*1043 FILLER_45_141
*1044 FILLER_45_144
*1045 FILLER_45_2
*1046 FILLER_45_208
*1047 FILLER_45_212
*1048 FILLER_45_215
*1049 FILLER_45_279
*1050 FILLER_45_283
*1051 FILLER_45_286
*1052 FILLER_45_350
*1053 FILLER_45_354
*1054 FILLER_45_357
*1055 FILLER_45_421
*1056 FILLER_45_425
*1057 FILLER_45_428
*1058 FILLER_45_492
*1059 FILLER_45_496
*1060 FILLER_45_499
*1061 FILLER_45_507
*1062 FILLER_45_66
*1063 FILLER_45_70
*1064 FILLER_45_73
*1065 FILLER_46_101
*1066 FILLER_46_105
*1067 FILLER_46_108
*1068 FILLER_46_172
*1069 FILLER_46_176
*1070 FILLER_46_179
*1071 FILLER_46_2
*1072 FILLER_46_243
*1073 FILLER_46_247
*1074 FILLER_46_250
*1075 FILLER_46_314
*1076 FILLER_46_318
*1077 FILLER_46_321
*1078 FILLER_46_34
*1079 FILLER_46_37
*1080 FILLER_46_385
*1081 FILLER_46_389
*1082 FILLER_46_392
*1083 FILLER_46_456
*1084 FILLER_46_460
*1085 FILLER_46_463
*1086 FILLER_46_495
*1087 FILLER_46_503
*1088 FILLER_46_507
*1089 FILLER_47_137
*1090 FILLER_47_141
*1091 FILLER_47_144
*1092 FILLER_47_2
*1093 FILLER_47_208
*1094 FILLER_47_212
*1095 FILLER_47_215
*1096 FILLER_47_279
*1097 FILLER_47_283
*1098 FILLER_47_286
*1099 FILLER_47_350
*1100 FILLER_47_354
*1101 FILLER_47_357
*1102 FILLER_47_421
*1103 FILLER_47_425
*1104 FILLER_47_428
*1105 FILLER_47_492
*1106 FILLER_47_496
*1107 FILLER_47_499
*1108 FILLER_47_507
*1109 FILLER_47_66
*1110 FILLER_47_70
*1111 FILLER_47_73
*1112 FILLER_48_101
*1113 FILLER_48_105
*1114 FILLER_48_108
*1115 FILLER_48_172
*1116 FILLER_48_176
*1117 FILLER_48_179
*1118 FILLER_48_2
*1119 FILLER_48_243
*1120 FILLER_48_247
*1121 FILLER_48_250
*1122 FILLER_48_314
*1123 FILLER_48_318
*1124 FILLER_48_321
*1125 FILLER_48_34
*1126 FILLER_48_37
*1127 FILLER_48_385
*1128 FILLER_48_389
*1129 FILLER_48_392
*1130 FILLER_48_456
*1131 FILLER_48_460
*1132 FILLER_48_463
*1133 FILLER_48_495
*1134 FILLER_48_503
*1135 FILLER_48_507
*1136 FILLER_49_137
*1137 FILLER_49_141
*1138 FILLER_49_144
*1139 FILLER_49_2
*1140 FILLER_49_208
*1141 FILLER_49_212
*1142 FILLER_49_215
*1143 FILLER_49_279
*1144 FILLER_49_283
*1145 FILLER_49_286
*1146 FILLER_49_350
*1147 FILLER_49_354
*1148 FILLER_49_357
*1149 FILLER_49_421
*1150 FILLER_49_425
*1151 FILLER_49_428
*1152 FILLER_49_492
*1153 FILLER_49_496
*1154 FILLER_49_499
*1155 FILLER_49_507
*1156 FILLER_49_66
*1157 FILLER_49_70
*1158 FILLER_49_73
*1159 FILLER_4_101
*1160 FILLER_4_105
*1161 FILLER_4_108
*1162 FILLER_4_172
*1163 FILLER_4_176
*1164 FILLER_4_179
*1165 FILLER_4_2
*1166 FILLER_4_243
*1167 FILLER_4_247
*1168 FILLER_4_250
*1169 FILLER_4_314
*1170 FILLER_4_318
*1171 FILLER_4_321
*1172 FILLER_4_34
*1173 FILLER_4_37
*1174 FILLER_4_385
*1175 FILLER_4_389
*1176 FILLER_4_392
*1177 FILLER_4_456
*1178 FILLER_4_460
*1179 FILLER_4_463
*1180 FILLER_4_495
*1181 FILLER_4_503
*1182 FILLER_4_507
*1183 FILLER_50_101
*1184 FILLER_50_105
*1185 FILLER_50_108
*1186 FILLER_50_172
*1187 FILLER_50_176
*1188 FILLER_50_179
*1189 FILLER_50_2
*1190 FILLER_50_243
*1191 FILLER_50_247
*1192 FILLER_50_250
*1193 FILLER_50_314
*1194 FILLER_50_318
*1195 FILLER_50_321
*1196 FILLER_50_34
*1197 FILLER_50_37
*1198 FILLER_50_385
*1199 FILLER_50_389
*1200 FILLER_50_392
*1201 FILLER_50_456
*1202 FILLER_50_460
*1203 FILLER_50_463
*1204 FILLER_50_495
*1205 FILLER_50_503
*1206 FILLER_50_507
*1207 FILLER_51_137
*1208 FILLER_51_141
*1209 FILLER_51_144
*1210 FILLER_51_2
*1211 FILLER_51_208
*1212 FILLER_51_212
*1213 FILLER_51_215
*1214 FILLER_51_279
*1215 FILLER_51_283
*1216 FILLER_51_286
*1217 FILLER_51_350
*1218 FILLER_51_354
*1219 FILLER_51_357
*1220 FILLER_51_421
*1221 FILLER_51_425
*1222 FILLER_51_428
*1223 FILLER_51_492
*1224 FILLER_51_496
*1225 FILLER_51_499
*1226 FILLER_51_507
*1227 FILLER_51_66
*1228 FILLER_51_70
*1229 FILLER_51_73
*1230 FILLER_52_101
*1231 FILLER_52_105
*1232 FILLER_52_108
*1233 FILLER_52_172
*1234 FILLER_52_176
*1235 FILLER_52_179
*1236 FILLER_52_2
*1237 FILLER_52_243
*1238 FILLER_52_247
*1239 FILLER_52_250
*1240 FILLER_52_314
*1241 FILLER_52_318
*1242 FILLER_52_321
*1243 FILLER_52_34
*1244 FILLER_52_37
*1245 FILLER_52_385
*1246 FILLER_52_389
*1247 FILLER_52_392
*1248 FILLER_52_456
*1249 FILLER_52_460
*1250 FILLER_52_463
*1251 FILLER_52_495
*1252 FILLER_52_503
*1253 FILLER_52_507
*1254 FILLER_53_137
*1255 FILLER_53_141
*1256 FILLER_53_144
*1257 FILLER_53_2
*1258 FILLER_53_208
*1259 FILLER_53_212
*1260 FILLER_53_215
*1261 FILLER_53_279
*1262 FILLER_53_283
*1263 FILLER_53_286
*1264 FILLER_53_350
*1265 FILLER_53_354
*1266 FILLER_53_357
*1267 FILLER_53_421
*1268 FILLER_53_425
*1269 FILLER_53_428
*1270 FILLER_53_492
*1271 FILLER_53_496
*1272 FILLER_53_499
*1273 FILLER_53_507
*1274 FILLER_53_66
*1275 FILLER_53_70
*1276 FILLER_53_73
*1277 FILLER_54_101
*1278 FILLER_54_105
*1279 FILLER_54_108
*1280 FILLER_54_172
*1281 FILLER_54_176
*1282 FILLER_54_179
*1283 FILLER_54_2
*1284 FILLER_54_243
*1285 FILLER_54_247
*1286 FILLER_54_250
*1287 FILLER_54_314
*1288 FILLER_54_318
*1289 FILLER_54_321
*1290 FILLER_54_34
*1291 FILLER_54_37
*1292 FILLER_54_385
*1293 FILLER_54_389
*1294 FILLER_54_392
*1295 FILLER_54_456
*1296 FILLER_54_460
*1297 FILLER_54_463
*1298 FILLER_54_495
*1299 FILLER_54_503
*1300 FILLER_54_507
*1301 FILLER_55_137
*1302 FILLER_55_141
*1303 FILLER_55_144
*1304 FILLER_55_2
*1305 FILLER_55_208
*1306 FILLER_55_212
*1307 FILLER_55_215
*1308 FILLER_55_279
*1309 FILLER_55_283
*1310 FILLER_55_286
*1311 FILLER_55_350
*1312 FILLER_55_354
*1313 FILLER_55_357
*1314 FILLER_55_421
*1315 FILLER_55_425
*1316 FILLER_55_428
*1317 FILLER_55_492
*1318 FILLER_55_496
*1319 FILLER_55_499
*1320 FILLER_55_507
*1321 FILLER_55_66
*1322 FILLER_55_70
*1323 FILLER_55_73
*1324 FILLER_56_101
*1325 FILLER_56_105
*1326 FILLER_56_108
*1327 FILLER_56_172
*1328 FILLER_56_176
*1329 FILLER_56_179
*1330 FILLER_56_2
*1331 FILLER_56_243
*1332 FILLER_56_247
*1333 FILLER_56_250
*1334 FILLER_56_314
*1335 FILLER_56_318
*1336 FILLER_56_321
*1337 FILLER_56_34
*1338 FILLER_56_37
*1339 FILLER_56_385
*1340 FILLER_56_389
*1341 FILLER_56_392
*1342 FILLER_56_456
*1343 FILLER_56_460
*1344 FILLER_56_463
*1345 FILLER_56_495
*1346 FILLER_56_503
*1347 FILLER_56_507
*1348 FILLER_57_137
*1349 FILLER_57_141
*1350 FILLER_57_144
*1351 FILLER_57_2
*1352 FILLER_57_208
*1353 FILLER_57_212
*1354 FILLER_57_215
*1355 FILLER_57_279
*1356 FILLER_57_283
*1357 FILLER_57_286
*1358 FILLER_57_350
*1359 FILLER_57_354
*1360 FILLER_57_357
*1361 FILLER_57_421
*1362 FILLER_57_425
*1363 FILLER_57_428
*1364 FILLER_57_492
*1365 FILLER_57_496
*1366 FILLER_57_499
*1367 FILLER_57_507
*1368 FILLER_57_66
*1369 FILLER_57_70
*1370 FILLER_57_73
*1371 FILLER_58_101
*1372 FILLER_58_105
*1373 FILLER_58_108
*1374 FILLER_58_172
*1375 FILLER_58_176
*1376 FILLER_58_179
*1377 FILLER_58_2
*1378 FILLER_58_243
*1379 FILLER_58_247
*1380 FILLER_58_250
*1381 FILLER_58_314
*1382 FILLER_58_318
*1383 FILLER_58_321
*1384 FILLER_58_34
*1385 FILLER_58_37
*1386 FILLER_58_385
*1387 FILLER_58_389
*1388 FILLER_58_392
*1389 FILLER_58_456
*1390 FILLER_58_460
*1391 FILLER_58_463
*1392 FILLER_58_495
*1393 FILLER_58_503
*1394 FILLER_58_507
*1395 FILLER_59_137
*1396 FILLER_59_141
*1397 FILLER_59_144
*1398 FILLER_59_2
*1399 FILLER_59_208
*1400 FILLER_59_212
*1401 FILLER_59_215
*1402 FILLER_59_279
*1403 FILLER_59_283
*1404 FILLER_59_286
*1405 FILLER_59_350
*1406 FILLER_59_354
*1407 FILLER_59_357
*1408 FILLER_59_421
*1409 FILLER_59_425
*1410 FILLER_59_428
*1411 FILLER_59_492
*1412 FILLER_59_496
*1413 FILLER_59_499
*1414 FILLER_59_507
*1415 FILLER_59_66
*1416 FILLER_59_70
*1417 FILLER_59_73
*1418 FILLER_5_137
*1419 FILLER_5_141
*1420 FILLER_5_144
*1421 FILLER_5_2
*1422 FILLER_5_208
*1423 FILLER_5_212
*1424 FILLER_5_215
*1425 FILLER_5_279
*1426 FILLER_5_283
*1427 FILLER_5_286
*1428 FILLER_5_350
*1429 FILLER_5_354
*1430 FILLER_5_357
*1431 FILLER_5_421
*1432 FILLER_5_425
*1433 FILLER_5_428
*1434 FILLER_5_492
*1435 FILLER_5_496
*1436 FILLER_5_499
*1437 FILLER_5_507
*1438 FILLER_5_66
*1439 FILLER_5_70
*1440 FILLER_5_73
*1441 FILLER_60_101
*1442 FILLER_60_105
*1443 FILLER_60_108
*1444 FILLER_60_172
*1445 FILLER_60_176
*1446 FILLER_60_179
*1447 FILLER_60_2
*1448 FILLER_60_243
*1449 FILLER_60_247
*1450 FILLER_60_250
*1451 FILLER_60_314
*1452 FILLER_60_318
*1453 FILLER_60_321
*1454 FILLER_60_34
*1455 FILLER_60_37
*1456 FILLER_60_385
*1457 FILLER_60_389
*1458 FILLER_60_392
*1459 FILLER_60_456
*1460 FILLER_60_460
*1461 FILLER_60_463
*1462 FILLER_60_495
*1463 FILLER_60_503
*1464 FILLER_60_507
*1465 FILLER_61_137
*1466 FILLER_61_141
*1467 FILLER_61_144
*1468 FILLER_61_2
*1469 FILLER_61_208
*1470 FILLER_61_212
*1471 FILLER_61_215
*1472 FILLER_61_279
*1473 FILLER_61_283
*1474 FILLER_61_286
*1475 FILLER_61_350
*1476 FILLER_61_354
*1477 FILLER_61_357
*1478 FILLER_61_421
*1479 FILLER_61_425
*1480 FILLER_61_428
*1481 FILLER_61_492
*1482 FILLER_61_496
*1483 FILLER_61_499
*1484 FILLER_61_507
*1485 FILLER_61_66
*1486 FILLER_61_70
*1487 FILLER_61_73
*1488 FILLER_62_101
*1489 FILLER_62_105
*1490 FILLER_62_108
*1491 FILLER_62_172
*1492 FILLER_62_176
*1493 FILLER_62_179
*1494 FILLER_62_2
*1495 FILLER_62_243
*1496 FILLER_62_247
*1497 FILLER_62_250
*1498 FILLER_62_314
*1499 FILLER_62_318
*1500 FILLER_62_321
*1501 FILLER_62_34
*1502 FILLER_62_37
*1503 FILLER_62_385
*1504 FILLER_62_389
*1505 FILLER_62_392
*1506 FILLER_62_456
*1507 FILLER_62_460
*1508 FILLER_62_463
*1509 FILLER_62_495
*1510 FILLER_62_503
*1511 FILLER_62_507
*1512 FILLER_63_137
*1513 FILLER_63_141
*1514 FILLER_63_144
*1515 FILLER_63_2
*1516 FILLER_63_208
*1517 FILLER_63_212
*1518 FILLER_63_215
*1519 FILLER_63_279
*1520 FILLER_63_283
*1521 FILLER_63_286
*1522 FILLER_63_350
*1523 FILLER_63_354
*1524 FILLER_63_357
*1525 FILLER_63_421
*1526 FILLER_63_425
*1527 FILLER_63_428
*1528 FILLER_63_492
*1529 FILLER_63_496
*1530 FILLER_63_499
*1531 FILLER_63_507
*1532 FILLER_63_66
*1533 FILLER_63_70
*1534 FILLER_63_73
*1535 FILLER_64_101
*1536 FILLER_64_105
*1537 FILLER_64_108
*1538 FILLER_64_172
*1539 FILLER_64_176
*1540 FILLER_64_179
*1541 FILLER_64_2
*1542 FILLER_64_243
*1543 FILLER_64_247
*1544 FILLER_64_250
*1545 FILLER_64_314
*1546 FILLER_64_318
*1547 FILLER_64_321
*1548 FILLER_64_34
*1549 FILLER_64_37
*1550 FILLER_64_385
*1551 FILLER_64_389
*1552 FILLER_64_392
*1553 FILLER_64_456
*1554 FILLER_64_460
*1555 FILLER_64_463
*1556 FILLER_64_495
*1557 FILLER_64_503
*1558 FILLER_64_507
*1559 FILLER_65_137
*1560 FILLER_65_141
*1561 FILLER_65_144
*1562 FILLER_65_2
*1563 FILLER_65_208
*1564 FILLER_65_212
*1565 FILLER_65_215
*1566 FILLER_65_279
*1567 FILLER_65_283
*1568 FILLER_65_286
*1569 FILLER_65_350
*1570 FILLER_65_354
*1571 FILLER_65_357
*1572 FILLER_65_421
*1573 FILLER_65_425
*1574 FILLER_65_428
*1575 FILLER_65_492
*1576 FILLER_65_496
*1577 FILLER_65_499
*1578 FILLER_65_507
*1579 FILLER_65_66
*1580 FILLER_65_70
*1581 FILLER_65_73
*1582 FILLER_66_102
*1583 FILLER_66_108
*1584 FILLER_66_114
*1585 FILLER_66_146
*1586 FILLER_66_162
*1587 FILLER_66_170
*1588 FILLER_66_174
*1589 FILLER_66_176
*1590 FILLER_66_179
*1591 FILLER_66_2
*1592 FILLER_66_211
*1593 FILLER_66_213
*1594 FILLER_66_218
*1595 FILLER_66_234
*1596 FILLER_66_242
*1597 FILLER_66_246
*1598 FILLER_66_250
*1599 FILLER_66_318
*1600 FILLER_66_321
*1601 FILLER_66_34
*1602 FILLER_66_353