*SPEF "ieee 1481-1999"
*DESIGN "user_project_wrapper"
*DATE "11:11:11 Fri 11 11, 1111"
*VENDOR "OpenRCX"
*PROGRAM "Parallel Extraction"
*VERSION "1.0"
*DESIGN_FLOW "NAME_SCOPE LOCAL" "PIN_CAP NONE"
*DIVIDER /
*DELIMITER :
*BUS_DELIMITER []
*T_UNIT 1 NS
*C_UNIT 1 PF
*R_UNIT 1 OHM
*L_UNIT 1 HENRY

*NAME_MAP
*1 io_in[0]
*2 io_in[10]
*3 io_in[11]
*4 io_in[12]
*5 io_in[13]
*6 io_in[14]
*7 io_in[15]
*8 io_in[16]
*9 io_in[17]
*10 io_in[18]
*11 io_in[19]
*12 io_in[1]
*13 io_in[20]
*14 io_in[21]
*15 io_in[22]
*16 io_in[23]
*17 io_in[24]
*18 io_in[25]
*19 io_in[26]
*20 io_in[27]
*21 io_in[28]
*22 io_in[29]
*23 io_in[2]
*24 io_in[30]
*25 io_in[31]
*26 io_in[32]
*27 io_in[33]
*28 io_in[34]
*29 io_in[35]
*30 io_in[36]
*31 io_in[37]
*32 io_in[3]
*33 io_in[4]
*34 io_in[5]
*35 io_in[6]
*36 io_in[7]
*37 io_in[8]
*38 io_in[9]
*39 io_oeb[0]
*40 io_oeb[10]
*41 io_oeb[11]
*42 io_oeb[12]
*43 io_oeb[13]
*44 io_oeb[14]
*45 io_oeb[15]
*46 io_oeb[16]
*47 io_oeb[17]
*48 io_oeb[18]
*49 io_oeb[19]
*50 io_oeb[1]
*51 io_oeb[20]
*52 io_oeb[21]
*53 io_oeb[22]
*54 io_oeb[23]
*55 io_oeb[24]
*56 io_oeb[25]
*57 io_oeb[26]
*58 io_oeb[27]
*59 io_oeb[28]
*60 io_oeb[29]
*61 io_oeb[2]
*62 io_oeb[30]
*63 io_oeb[31]
*64 io_oeb[32]
*65 io_oeb[33]
*66 io_oeb[34]
*67 io_oeb[35]
*68 io_oeb[36]
*69 io_oeb[37]
*70 io_oeb[3]
*71 io_oeb[4]
*72 io_oeb[5]
*73 io_oeb[6]
*74 io_oeb[7]
*75 io_oeb[8]
*76 io_oeb[9]
*77 io_out[0]
*78 io_out[10]
*79 io_out[11]
*80 io_out[12]
*81 io_out[13]
*82 io_out[14]
*83 io_out[15]
*84 io_out[16]
*85 io_out[17]
*86 io_out[18]
*87 io_out[19]
*88 io_out[1]
*89 io_out[20]
*90 io_out[21]
*91 io_out[22]
*92 io_out[23]
*93 io_out[24]
*94 io_out[25]
*95 io_out[26]
*96 io_out[27]
*97 io_out[28]
*98 io_out[29]
*99 io_out[2]
*100 io_out[30]
*101 io_out[31]
*102 io_out[32]
*103 io_out[33]
*104 io_out[34]
*105 io_out[35]
*106 io_out[36]
*107 io_out[37]
*108 io_out[3]
*109 io_out[4]
*110 io_out[5]
*111 io_out[6]
*112 io_out[7]
*113 io_out[8]
*114 io_out[9]
*115 la_data_in[0]
*116 la_data_in[10]
*117 la_data_in[11]
*118 la_data_in[12]
*119 la_data_in[13]
*120 la_data_in[14]
*121 la_data_in[15]
*122 la_data_in[16]
*123 la_data_in[17]
*124 la_data_in[18]
*125 la_data_in[19]
*126 la_data_in[1]
*127 la_data_in[20]
*128 la_data_in[21]
*129 la_data_in[22]
*130 la_data_in[23]
*131 la_data_in[24]
*132 la_data_in[25]
*133 la_data_in[26]
*134 la_data_in[27]
*135 la_data_in[28]
*136 la_data_in[29]
*137 la_data_in[2]
*138 la_data_in[30]
*139 la_data_in[31]
*140 la_data_in[32]
*141 la_data_in[33]
*142 la_data_in[34]
*143 la_data_in[35]
*144 la_data_in[36]
*145 la_data_in[37]
*146 la_data_in[38]
*147 la_data_in[39]
*148 la_data_in[3]
*149 la_data_in[40]
*150 la_data_in[41]
*151 la_data_in[42]
*152 la_data_in[43]
*153 la_data_in[44]
*154 la_data_in[45]
*155 la_data_in[46]
*156 la_data_in[47]
*157 la_data_in[48]
*158 la_data_in[49]
*159 la_data_in[4]
*160 la_data_in[50]
*161 la_data_in[51]
*162 la_data_in[52]
*163 la_data_in[53]
*164 la_data_in[54]
*165 la_data_in[55]
*166 la_data_in[56]
*167 la_data_in[57]
*168 la_data_in[58]
*169 la_data_in[59]
*170 la_data_in[5]
*171 la_data_in[60]
*172 la_data_in[61]
*173 la_data_in[62]
*174 la_data_in[63]
*175 la_data_in[6]
*176 la_data_in[7]
*177 la_data_in[8]
*178 la_data_in[9]
*179 la_data_out[0]
*180 la_data_out[10]
*181 la_data_out[11]
*182 la_data_out[12]
*183 la_data_out[13]
*184 la_data_out[14]
*185 la_data_out[15]
*186 la_data_out[16]
*187 la_data_out[17]
*188 la_data_out[18]
*189 la_data_out[19]
*190 la_data_out[1]
*191 la_data_out[20]
*192 la_data_out[21]
*193 la_data_out[22]
*194 la_data_out[23]
*195 la_data_out[24]
*196 la_data_out[25]
*197 la_data_out[26]
*198 la_data_out[27]
*199 la_data_out[28]
*200 la_data_out[29]
*201 la_data_out[2]
*202 la_data_out[30]
*203 la_data_out[31]
*204 la_data_out[32]
*205 la_data_out[33]
*206 la_data_out[34]
*207 la_data_out[35]
*208 la_data_out[36]
*209 la_data_out[37]
*210 la_data_out[38]
*211 la_data_out[39]
*212 la_data_out[3]
*213 la_data_out[40]
*214 la_data_out[41]
*215 la_data_out[42]
*216 la_data_out[43]
*217 la_data_out[44]
*218 la_data_out[45]
*219 la_data_out[46]
*220 la_data_out[47]
*221 la_data_out[48]
*222 la_data_out[49]
*223 la_data_out[4]
*224 la_data_out[50]
*225 la_data_out[51]
*226 la_data_out[52]
*227 la_data_out[53]
*228 la_data_out[54]
*229 la_data_out[55]
*230 la_data_out[56]
*231 la_data_out[57]
*232 la_data_out[58]
*233 la_data_out[59]
*234 la_data_out[5]
*235 la_data_out[60]
*236 la_data_out[61]
*237 la_data_out[62]
*238 la_data_out[63]
*239 la_data_out[6]
*240 la_data_out[7]
*241 la_data_out[8]
*242 la_data_out[9]
*243 la_oenb[0]
*244 la_oenb[10]
*245 la_oenb[11]
*246 la_oenb[12]
*247 la_oenb[13]
*248 la_oenb[14]
*249 la_oenb[15]
*250 la_oenb[16]
*251 la_oenb[17]
*252 la_oenb[18]
*253 la_oenb[19]
*254 la_oenb[1]
*255 la_oenb[20]
*256 la_oenb[21]
*257 la_oenb[22]
*258 la_oenb[23]
*259 la_oenb[24]
*260 la_oenb[25]
*261 la_oenb[26]
*262 la_oenb[27]
*263 la_oenb[28]
*264 la_oenb[29]
*265 la_oenb[2]
*266 la_oenb[30]
*267 la_oenb[31]
*268 la_oenb[32]
*269 la_oenb[33]
*270 la_oenb[34]
*271 la_oenb[35]
*272 la_oenb[36]
*273 la_oenb[37]
*274 la_oenb[38]
*275 la_oenb[39]
*276 la_oenb[3]
*277 la_oenb[40]
*278 la_oenb[41]
*279 la_oenb[42]
*280 la_oenb[43]
*281 la_oenb[44]
*282 la_oenb[45]
*283 la_oenb[46]
*284 la_oenb[47]
*285 la_oenb[48]
*286 la_oenb[49]
*287 la_oenb[4]
*288 la_oenb[50]
*289 la_oenb[51]
*290 la_oenb[52]
*291 la_oenb[53]
*292 la_oenb[54]
*293 la_oenb[55]
*294 la_oenb[56]
*295 la_oenb[57]
*296 la_oenb[58]
*297 la_oenb[59]
*298 la_oenb[5]
*299 la_oenb[60]
*300 la_oenb[61]
*301 la_oenb[62]
*302 la_oenb[63]
*303 la_oenb[6]
*304 la_oenb[7]
*305 la_oenb[8]
*306 la_oenb[9]
*307 user_clock2
*308 user_irq[0]
*309 user_irq[1]
*310 user_irq[2]
*313 wb_clk_i
*314 wb_rst_i
*315 wbs_ack_o
*316 wbs_adr_i[0]
*317 wbs_adr_i[10]
*318 wbs_adr_i[11]
*319 wbs_adr_i[12]
*320 wbs_adr_i[13]
*321 wbs_adr_i[14]
*322 wbs_adr_i[15]
*323 wbs_adr_i[16]
*324 wbs_adr_i[17]
*325 wbs_adr_i[18]
*326 wbs_adr_i[19]
*327 wbs_adr_i[1]
*328 wbs_adr_i[20]
*329 wbs_adr_i[21]
*330 wbs_adr_i[22]
*331 wbs_adr_i[23]
*332 wbs_adr_i[24]
*333 wbs_adr_i[25]
*334 wbs_adr_i[26]
*335 wbs_adr_i[27]
*336 wbs_adr_i[28]
*337 wbs_adr_i[29]
*338 wbs_adr_i[2]
*339 wbs_adr_i[30]
*340 wbs_adr_i[31]
*341 wbs_adr_i[3]
*342 wbs_adr_i[4]
*343 wbs_adr_i[5]
*344 wbs_adr_i[6]
*345 wbs_adr_i[7]
*346 wbs_adr_i[8]
*347 wbs_adr_i[9]
*348 wbs_cyc_i
*349 wbs_dat_i[0]
*350 wbs_dat_i[10]
*351 wbs_dat_i[11]
*352 wbs_dat_i[12]
*353 wbs_dat_i[13]
*354 wbs_dat_i[14]
*355 wbs_dat_i[15]
*356 wbs_dat_i[16]
*357 wbs_dat_i[17]
*358 wbs_dat_i[18]
*359 wbs_dat_i[19]
*360 wbs_dat_i[1]
*361 wbs_dat_i[20]
*362 wbs_dat_i[21]
*363 wbs_dat_i[22]
*364 wbs_dat_i[23]
*365 wbs_dat_i[24]
*366 wbs_dat_i[25]
*367 wbs_dat_i[26]
*368 wbs_dat_i[27]
*369 wbs_dat_i[28]
*370 wbs_dat_i[29]
*371 wbs_dat_i[2]
*372 wbs_dat_i[30]
*373 wbs_dat_i[31]
*374 wbs_dat_i[3]
*375 wbs_dat_i[4]
*376 wbs_dat_i[5]
*377 wbs_dat_i[6]
*378 wbs_dat_i[7]
*379 wbs_dat_i[8]
*380 wbs_dat_i[9]
*381 wbs_dat_o[0]
*382 wbs_dat_o[10]
*383 wbs_dat_o[11]
*384 wbs_dat_o[12]
*385 wbs_dat_o[13]
*386 wbs_dat_o[14]
*387 wbs_dat_o[15]
*388 wbs_dat_o[16]
*389 wbs_dat_o[17]
*390 wbs_dat_o[18]
*391 wbs_dat_o[19]
*392 wbs_dat_o[1]
*393 wbs_dat_o[20]
*394 wbs_dat_o[21]
*395 wbs_dat_o[22]
*396 wbs_dat_o[23]
*397 wbs_dat_o[24]
*398 wbs_dat_o[25]
*399 wbs_dat_o[26]
*400 wbs_dat_o[27]
*401 wbs_dat_o[28]
*402 wbs_dat_o[29]
*403 wbs_dat_o[2]
*404 wbs_dat_o[30]
*405 wbs_dat_o[31]
*406 wbs_dat_o[3]
*407 wbs_dat_o[4]
*408 wbs_dat_o[5]
*409 wbs_dat_o[6]
*410 wbs_dat_o[7]
*411 wbs_dat_o[8]
*412 wbs_dat_o[9]
*413 wbs_sel_i[0]
*414 wbs_sel_i[1]
*415 wbs_sel_i[2]
*416 wbs_sel_i[3]
*417 wbs_stb_i
*418 wbs_we_i
*419 wrapped_multiplier_8_1

*PORTS
io_in[0] I
io_in[10] I
io_in[11] I
io_in[12] I
io_in[13] I
io_in[14] I
io_in[15] I
io_in[16] I
io_in[17] I
io_in[18] I
io_in[19] I
io_in[1] I
io_in[20] I
io_in[21] I
io_in[22] I
io_in[23] I
io_in[24] I
io_in[25] I
io_in[26] I
io_in[27] I
io_in[28] I
io_in[29] I
io_in[2] I
io_in[30] I
io_in[31] I
io_in[32] I
io_in[33] I
io_in[34] I
io_in[35] I
io_in[36] I
io_in[37] I
io_in[3] I
io_in[4] I
io_in[5] I
io_in[6] I
io_in[7] I
io_in[8] I
io_in[9] I
io_oeb[0] O
io_oeb[10] O
io_oeb[11] O
io_oeb[12] O
io_oeb[13] O
io_oeb[14] O
io_oeb[15] O
io_oeb[16] O
io_oeb[17] O
io_oeb[18] O
io_oeb[19] O
io_oeb[1] O
io_oeb[20] O
io_oeb[21] O
io_oeb[22] O
io_oeb[23] O
io_oeb[24] O
io_oeb[25] O
io_oeb[26] O
io_oeb[27] O
io_oeb[28] O
io_oeb[29] O
io_oeb[2] O
io_oeb[30] O
io_oeb[31] O
io_oeb[32] O
io_oeb[33] O
io_oeb[34] O
io_oeb[35] O
io_oeb[36] O
io_oeb[37] O
io_oeb[3] O
io_oeb[4] O
io_oeb[5] O
io_oeb[6] O
io_oeb[7] O
io_oeb[8] O
io_oeb[9] O
io_out[0] O
io_out[10] O
io_out[11] O
io_out[12] O
io_out[13] O
io_out[14] O
io_out[15] O
io_out[16] O
io_out[17] O
io_out[18] O
io_out[19] O
io_out[1] O
io_out[20] O
io_out[21] O
io_out[22] O
io_out[23] O
io_out[24] O
io_out[25] O
io_out[26] O
io_out[27] O
io_out[28] O
io_out[29] O
io_out[2] O
io_out[30] O
io_out[31] O
io_out[32] O
io_out[33] O
io_out[34] O
io_out[35] O
io_out[36] O
io_out[37] O
io_out[3] O
io_out[4] O
io_out[5] O
io_out[6] O
io_out[7] O
io_out[8] O
io_out[9] O
la_data_in[0] I
la_data_in[10] I
la_data_in[11] I
la_data_in[12] I
la_data_in[13] I
la_data_in[14] I
la_data_in[15] I
la_data_in[16] I
la_data_in[17] I
la_data_in[18] I
la_data_in[19] I
la_data_in[1] I
la_data_in[20] I
la_data_in[21] I
la_data_in[22] I
la_data_in[23] I
la_data_in[24] I
la_data_in[25] I
la_data_in[26] I
la_data_in[27] I
la_data_in[28] I
la_data_in[29] I
la_data_in[2] I
la_data_in[30] I
la_data_in[31] I
la_data_in[32] I
la_data_in[33] I
la_data_in[34] I
la_data_in[35] I
la_data_in[36] I
la_data_in[37] I
la_data_in[38] I
la_data_in[39] I
la_data_in[3] I
la_data_in[40] I
la_data_in[41] I
la_data_in[42] I
la_data_in[43] I
la_data_in[44] I
la_data_in[45] I
la_data_in[46] I
la_data_in[47] I
la_data_in[48] I
la_data_in[49] I
la_data_in[4] I
la_data_in[50] I
la_data_in[51] I
la_data_in[52] I
la_data_in[53] I
la_data_in[54] I
la_data_in[55] I
la_data_in[56] I
la_data_in[57] I
la_data_in[58] I
la_data_in[59] I
la_data_in[5] I
la_data_in[60] I
la_data_in[61] I
la_data_in[62] I
la_data_in[63] I
la_data_in[6] I
la_data_in[7] I
la_data_in[8] I
la_data_in[9] I
la_data_out[0] O
la_data_out[10] O
la_data_out[11] O
la_data_out[12] O
la_data_out[13] O
la_data_out[14] O
la_data_out[15] O
la_data_out[16] O
la_data_out[17] O
la_data_out[18] O
la_data_out[19] O
la_data_out[1] O
la_data_out[20] O
la_data_out[21] O
la_data_out[22] O
la_data_out[23] O
la_data_out[24] O
la_data_out[25] O
la_data_out[26] O
la_data_out[27] O
la_data_out[28] O
la_data_out[29] O
la_data_out[2] O
la_data_out[30] O
la_data_out[31] O
la_data_out[32] O
la_data_out[33] O
la_data_out[34] O
la_data_out[35] O
la_data_out[36] O
la_data_out[37] O
la_data_out[38] O
la_data_out[39] O
la_data_out[3] O
la_data_out[40] O
la_data_out[41] O
la_data_out[42] O
la_data_out[43] O
la_data_out[44] O
la_data_out[45] O
la_data_out[46] O
la_data_out[47] O
la_data_out[48] O
la_data_out[49] O
la_data_out[4] O
la_data_out[50] O
la_data_out[51] O
la_data_out[52] O
la_data_out[53] O
la_data_out[54] O
la_data_out[55] O
la_data_out[56] O
la_data_out[57] O
la_data_out[58] O
la_data_out[59] O
la_data_out[5] O
la_data_out[60] O
la_data_out[61] O
la_data_out[62] O
la_data_out[63] O
la_data_out[6] O
la_data_out[7] O
la_data_out[8] O
la_data_out[9] O
la_oenb[0] I
la_oenb[10] I
la_oenb[11] I
la_oenb[12] I
la_oenb[13] I
la_oenb[14] I
la_oenb[15] I
la_oenb[16] I
la_oenb[17] I
la_oenb[18] I
la_oenb[19] I
la_oenb[1] I
la_oenb[20] I
la_oenb[21] I
la_oenb[22] I
la_oenb[23] I
la_oenb[24] I
la_oenb[25] I
la_oenb[26] I
la_oenb[27] I
la_oenb[28] I
la_oenb[29] I
la_oenb[2] I
la_oenb[30] I
la_oenb[31] I
la_oenb[32] I
la_oenb[33] I
la_oenb[34] I
la_oenb[35] I
la_oenb[36] I
la_oenb[37] I
la_oenb[38] I
la_oenb[39] I
la_oenb[3] I
la_oenb[40] I
la_oenb[41] I
la_oenb[42] I
la_oenb[43] I
la_oenb[44] I
la_oenb[45] I
la_oenb[46] I
la_oenb[47] I
la_oenb[48] I
la_oenb[49] I
la_oenb[4] I
la_oenb[50] I
la_oenb[51] I
la_oenb[52] I
la_oenb[53] I
la_oenb[54] I
la_oenb[55] I
la_oenb[56] I
la_oenb[57] I
la_oenb[58] I
la_oenb[59] I
la_oenb[5] I
la_oenb[60] I
la_oenb[61] I
la_oenb[62] I
la_oenb[63] I
la_oenb[6] I
la_oenb[7] I
la_oenb[8] I
la_oenb[9] I
user_clock2 I
user_irq[0] O
user_irq[1] O
user_irq[2] O
wb_clk_i I
wb_rst_i I
wbs_ack_o O
wbs_adr_i[0] I
wbs_adr_i[10] I
wbs_adr_i[11] I
wbs_adr_i[12] I
wbs_adr_i[13] I
wbs_adr_i[14] I
wbs_adr_i[15] I
wbs_adr_i[16] I
wbs_adr_i[17] I
wbs_adr_i[18] I
wbs_adr_i[19] I
wbs_adr_i[1] I
wbs_adr_i[20] I
wbs_adr_i[21] I
wbs_adr_i[22] I
wbs_adr_i[23] I
wbs_adr_i[24] I
wbs_adr_i[25] I
wbs_adr_i[26] I
wbs_adr_i[27] I
wbs_adr_i[28] I
wbs_adr_i[29] I
wbs_adr_i[2] I
wbs_adr_i[30] I
wbs_adr_i[31] I
wbs_adr_i[3] I
wbs_adr_i[4] I
wbs_adr_i[5] I
wbs_adr_i[6] I
wbs_adr_i[7] I
wbs_adr_i[8] I
wbs_adr_i[9] I
wbs_cyc_i I
wbs_dat_i[0] I
wbs_dat_i[10] I
wbs_dat_i[11] I
wbs_dat_i[12] I
wbs_dat_i[13] I
wbs_dat_i[14] I
wbs_dat_i[15] I
wbs_dat_i[16] I
wbs_dat_i[17] I
wbs_dat_i[18] I
wbs_dat_i[19] I
wbs_dat_i[1] I
wbs_dat_i[20] I
wbs_dat_i[21] I
wbs_dat_i[22] I
wbs_dat_i[23] I
wbs_dat_i[24] I
wbs_dat_i[25] I
wbs_dat_i[26] I
wbs_dat_i[27] I
wbs_dat_i[28] I
wbs_dat_i[29] I
wbs_dat_i[2] I
wbs_dat_i[30] I
wbs_dat_i[31] I
wbs_dat_i[3] I
wbs_dat_i[4] I
wbs_dat_i[5] I
wbs_dat_i[6] I
wbs_dat_i[7] I
wbs_dat_i[8] I
wbs_dat_i[9] I
wbs_dat_o[0] O
wbs_dat_o[10] O
wbs_dat_o[11] O
wbs_dat_o[12] O
wbs_dat_o[13] O
wbs_dat_o[14] O
wbs_dat_o[15] O
wbs_dat_o[16] O
wbs_dat_o[17] O
wbs_dat_o[18] O
wbs_dat_o[19] O
wbs_dat_o[1] O
wbs_dat_o[20] O
wbs_dat_o[21] O
wbs_dat_o[22] O
wbs_dat_o[23] O
wbs_dat_o[24] O
wbs_dat_o[25] O
wbs_dat_o[26] O
wbs_dat_o[27] O
wbs_dat_o[28] O
wbs_dat_o[29] O
wbs_dat_o[2] O
wbs_dat_o[30] O
wbs_dat_o[31] O
wbs_dat_o[3] O
wbs_dat_o[4] O
wbs_dat_o[5] O
wbs_dat_o[6] O
wbs_dat_o[7] O
wbs_dat_o[8] O
wbs_dat_o[9] O
wbs_sel_i[0] I
wbs_sel_i[1] I
wbs_sel_i[2] I
wbs_sel_i[3] I
wbs_stb_i I
wbs_we_i I

*D_NET *1 0.464214
*CONN
*P io_in[0] I
*I *419:io_in[0] I *D wrapped_multiplier_8
*CAP
1 io_in[0] 0.00466579
2 *419:io_in[0] 0.000228541
3 *1:12 0.0440274
4 *1:11 0.0437989
5 *1:9 0.0684764
6 *1:7 0.0731422
7 *419:io_in[0] *39:12 0.000237266
8 *1:12 *39:13 0.229638
*RES
1 io_in[0] *1:7 37.305 
2 *1:7 *1:9 537.3 
3 *1:9 *1:11 4.5 
4 *1:11 *1:12 627.75 
5 *1:12 *419:io_in[0] 1.665 
*END

*D_NET *2 0.295453
*CONN
*P io_in[10] I
*I *419:io_in[10] I *D wrapped_multiplier_8
*CAP
1 io_in[10] 0.00121195
2 *419:io_in[10] 0.000811112
3 *2:9 0.0359303
4 *2:7 0.0363312
5 *419:io_in[10] *40:9 0.00136419
6 *419:io_in[10] *114:7 0.000235211
7 *2:7 *37:13 0.00516343
8 *2:9 *419:io_in[20] 0.00128147
9 *2:9 *3:11 0
10 *2:9 *37:13 0.000227863
11 *2:9 *37:15 0.212538
12 *2:9 *56:10 0.00035806
*RES
1 io_in[10] *2:7 15.795 
2 *2:7 *2:9 535.59 
3 *2:9 *419:io_in[10] 13.185 
*END

*D_NET *3 0.199055
*CONN
*P io_in[11] I
*I *419:io_in[11] I *D wrapped_multiplier_8
*CAP
1 io_in[11] 0.000294117
2 *419:io_in[11] 0.000580516
3 *3:11 0.0682
4 *3:10 0.0676195
5 *3:8 0.00045883
6 *3:7 0.000752947
7 *419:io_in[11] *41:9 0.00111764
8 *419:io_in[11] *78:7 0.00047062
9 *3:8 *7:11 0.00137452
10 *3:8 *37:8 0.000861074
11 *3:8 *41:13 0.019472
12 *3:8 *75:11 0.000343286
13 *3:8 *82:11 0.0225786
14 *3:8 *88:13 0.00143886
15 *3:11 *419:io_in[19] 0.00011836
16 *3:11 *419:io_in[27] 0.000139372
17 *3:11 *18:19 0.011746
18 *3:11 *32:11 0
19 *3:11 *56:10 7.98925e-05
20 *3:11 *66:8 0.00132288
21 *3:11 *79:10 8.5569e-05
22 *2:9 *3:11 0
*RES
1 io_in[11] *3:7 6.705 
2 *3:7 *3:8 65.79 
3 *3:8 *3:10 4.5 
4 *3:10 *3:11 546.39 
5 *3:11 *419:io_in[11] 11.745 
*END

*D_NET *4 0.245219
*CONN
*P io_in[12] I
*I *419:io_in[12] I *D wrapped_multiplier_8
*CAP
1 io_in[12] 0.000414676
2 *419:io_in[12] 0.00016929
3 *4:11 0.0672133
4 *4:10 0.067044
5 *4:8 0.000522108
6 *4:7 0.000936784
7 *419:io_in[12] *42:9 0.000237235
8 *419:io_in[12] *80:13 0.000241848
9 *4:8 *5:8 0.00106763
10 *4:8 *7:11 0.0529348
11 *4:8 *34:8 0.00260026
12 *4:8 *42:13 0.0434626
13 *4:11 *419:io_in[31] 0.00364905
14 *4:11 *419:io_in[9] 0.00220218
15 *4:11 *25:15 1.68787e-05
16 *4:11 *29:19 6.85374e-06
17 *4:11 *38:22 0.00239064
18 *4:11 *68:10 0.00010891
19 *4:11 *77:8 0
20 *4:11 *114:8 0
*RES
1 io_in[12] *4:7 7.425 
2 *4:7 *4:8 134.91 
3 *4:8 *4:10 4.5 
4 *4:10 *4:11 543.51 
5 *4:11 *419:io_in[12] 6.345 
*END

*D_NET *5 0.291647
*CONN
*P io_in[13] I
*I *419:io_in[13] I *D wrapped_multiplier_8
*CAP
1 io_in[13] 0.000479334
2 *419:io_in[13] 0.0015494
3 *5:11 0.0688031
4 *5:10 0.0672537
5 *5:8 0.000828938
6 *5:7 0.00130827
7 *419:io_in[13] *42:9 0
8 *419:io_in[13] *43:19 0.00118846
9 *419:io_in[13] *81:12 1.4446e-05
10 *5:8 *6:8 0.00234989
11 *5:8 *34:8 0.00168506
12 *5:8 *42:13 0.00284036
13 *5:8 *43:23 0.0674662
14 *5:8 *81:19 0.0621869
15 *5:11 *21:19 0.0126252
16 *5:11 *75:8 0
17 *4:8 *5:8 0.00106763
*RES
1 io_in[13] *5:7 7.965 
2 *5:7 *5:8 187.83 
3 *5:8 *5:10 4.5 
4 *5:10 *5:11 540.81 
5 *5:11 *419:io_in[13] 17.145 
*END

*D_NET *6 0.437278
*CONN
*P io_in[14] I
*I *419:io_in[14] I *D wrapped_multiplier_8
*CAP
1 io_in[14] 0.000619821
2 *419:io_in[14] 0.00161734
3 *6:11 0.0373432
4 *6:10 0.0357258
5 *6:8 0.00372071
6 *6:7 0.00434053
7 *419:io_in[14] *44:13 7.75184e-05
8 *419:io_in[14] *45:11 0.00183245
9 *419:io_in[14] *81:12 0.000336586
10 *6:8 io_oeb[10] 0.012212
11 *6:8 *7:11 0.000607444
12 *6:8 *43:23 0.0841808
13 *6:8 *44:17 0.0377226
14 *6:11 *52:8 0.000193414
15 *6:11 *82:8 0.214398
16 *5:8 *6:8 0.00234989
*RES
1 io_in[14] *6:7 8.325 
2 *6:7 *6:8 248.85 
3 *6:8 *6:10 4.5 
4 *6:10 *6:11 538.29 
5 *6:11 *419:io_in[14] 19.845 
*END

*D_NET *7 0.462969
*CONN
*P io_in[15] I
*I *419:io_in[15] I *D wrapped_multiplier_8
*CAP
1 io_in[15] 0.0029265
2 *419:io_in[15] 0.000224029
3 *7:14 0.032016
4 *7:13 0.0317919
5 *7:11 0.0122356
6 *7:10 0.0151621
7 *7:11 *34:8 0.000439593
8 *7:11 *41:13 0.00286193
9 *7:11 *42:13 0.00754503
10 *7:11 *43:23 0.00138608
11 *7:11 *44:17 0
12 *7:11 *75:11 0.00522853
13 *7:11 *80:17 0.046519
14 *7:11 *81:19 0.0049796
15 *7:11 *82:11 0.0104889
16 *7:14 *419:io_in[33] 1.83299e-05
17 *7:14 *24:11 0.0129642
18 *7:14 *35:11 0.214387
19 *7:14 *76:27 0.00687843
20 *3:8 *7:11 0.00137452
21 *4:8 *7:11 0.0529348
22 *6:8 *7:11 0.000607444
*RES
1 io_in[15] *7:10 32.535 
2 *7:10 *7:11 311.13 
3 *7:11 *7:13 4.5 
4 *7:13 *7:14 537.21 
5 *7:14 *419:io_in[15] 14.67 
*END

*D_NET *8 0.418047
*CONN
*P io_in[16] I
*I *419:io_in[16] I *D wrapped_multiplier_8
*CAP
1 io_in[16] 0.000523307
2 *419:io_in[16] 0.00148571
3 *8:11 0.0381743
4 *8:10 0.0366886
5 *8:8 0.00379329
6 *8:7 0.0043166
7 *419:io_in[16] *46:9 0.00136958
8 *419:io_in[16] *83:19 0.00676203
9 *8:8 *15:8 0.00124685
10 *8:8 *45:14 0.165745
11 *8:8 *84:14 0.148847
12 *8:11 *83:19 0.0090951
*RES
1 io_in[16] *8:7 8.505 
2 *8:7 *8:8 414.81 
3 *8:8 *8:10 4.5 
4 *8:10 *8:11 293.67 
5 *8:11 *419:io_in[16] 30.8015 
*END

*D_NET *9 0.190062
*CONN
*P io_in[17] I
*I *419:io_in[17] I *D wrapped_multiplier_8
*CAP
1 io_in[17] 0.000625813
2 *419:io_in[17] 5.17084e-05
3 *9:19 0.0403012
4 *9:18 0.0402494
5 *9:16 0.0204103
6 *9:15 0.0210361
7 *9:16 *15:8 0.00446785
8 *9:16 *16:8 0.00541553
9 *9:16 *84:14 0.0541529
10 *9:19 *46:9 0
11 *9:19 *47:9 0.00262825
12 *9:19 *84:10 0.000723268
*RES
1 io_in[17] *9:15 10.125 
2 *9:15 *9:16 304.47 
3 *9:16 *9:18 4.5 
4 *9:18 *9:19 314.55 
5 *9:19 *419:io_in[17] 0.405 
*END

*D_NET *10 0.181505
*CONN
*P io_in[18] I
*I *419:io_in[18] I *D wrapped_multiplier_8
*CAP
1 io_in[18] 0.00111576
2 *419:io_in[18] 0.00179302
3 *10:14 0.00751751
4 *10:13 0.00572449
5 *10:11 0.0379927
6 *10:10 0.0379927
7 *10:8 0.00943925
8 *10:7 0.010555
9 *419:io_in[18] *48:7 0.00281865
10 *419:io_in[18] *85:9 0.000387785
11 *10:8 io_out[19] 0.0030094
12 *10:8 *11:10 0.0171469
13 *10:8 *85:16 0.0424276
14 *10:14 *34:11 0
15 *10:14 *53:10 0.0035838
*RES
1 io_in[18] *10:7 12.645 
2 *10:7 *10:8 149.49 
3 *10:8 *10:10 4.5 
4 *10:10 *10:11 291.69 
5 *10:11 *10:13 4.5 
6 *10:13 *10:14 47.25 
7 *10:14 *419:io_in[18] 22.725 
*END

*D_NET *11 0.121812
*CONN
*P io_in[19] I
*I *419:io_in[19] I *D wrapped_multiplier_8
*CAP
1 io_in[19] 0.00117147
2 *419:io_in[19] 0.000720578
3 *11:13 0.0403219
4 *11:12 0.0396014
5 *11:10 0.00676156
6 *11:9 0.00793303
7 *419:io_in[19] *49:10 0.000379303
8 *419:io_in[19] *66:8 0.000737194
9 *419:io_in[19] *84:11 6.58895e-05
10 *419:io_in[19] *86:9 0.00072328
11 *11:9 *85:13 3.5516e-05
12 *11:10 io_oeb[19] 0.00153587
13 *11:10 io_out[19] 0.00350177
14 *11:13 *419:io_in[20] 0.000222724
15 *11:13 *49:10 8.09263e-05
16 *11:13 *51:10 0.000116515
17 *11:13 *87:10 0.000637925
18 *11:13 *89:13 0
19 *3:11 *419:io_in[19] 0.00011836
20 *10:8 *11:10 0.0171469
*RES
1 io_in[19] *11:9 13.095 
2 *11:9 *11:10 86.13 
3 *11:10 *11:12 4.5 
4 *11:12 *11:13 303.39 
5 *11:13 *419:io_in[19] 17.235 
*END

*D_NET *12 0.651864
*CONN
*P io_in[1] I
*I *419:io_in[1] I *D wrapped_multiplier_8
*CAP
1 io_in[1] 0.000492522
2 *419:io_in[1] 0.000640922
3 *12:11 0.0334955
4 *12:10 0.0328546
5 *12:8 0.00793939
6 *12:7 0.00843192
7 *12:8 *32:8 9.86406e-06
8 *12:8 *50:15 0.0918591
9 *12:8 *77:11 0.220362
10 *12:11 *30:11 0.0301425
11 *12:11 *35:11 0
12 *12:11 *50:12 0.225635
*RES
1 io_in[1] *12:7 8.505 
2 *12:7 *12:8 560.61 
3 *12:8 *12:10 4.5 
4 *12:10 *12:11 566.55 
5 *12:11 *419:io_in[1] 16.515 
*END

*D_NET *13 0.113958
*CONN
*P io_in[20] I
*I *419:io_in[20] I *D wrapped_multiplier_8
*CAP
1 io_in[20] 0.0329173
2 *419:io_in[20] 0.00193877
3 *13:11 0.00381539
4 *13:5 0.0347939
5 *419:io_in[20] *51:10 0.000473404
6 *419:io_in[20] *56:10 0.00789663
7 *419:io_in[20] *87:10 0.000376225
8 *13:5 *79:11 0.0223595
9 *13:11 *41:9 0
10 *13:11 *78:7 0.0031735
11 *13:11 *79:11 0.00470873
12 *2:9 *419:io_in[20] 0.00128147
13 *11:13 *419:io_in[20] 0.000222724
*RES
1 io_in[20] *13:5 282.375 
2 *13:5 *13:11 32.67 
3 *13:11 *419:io_in[20] 32.715 
*END

*D_NET *14 0.133056
*CONN
*P io_in[21] I
*I *419:io_in[21] I *D wrapped_multiplier_8
*CAP
1 io_in[21] 0.00136796
2 *419:io_in[21] 0.00241982
3 *14:14 0.0152643
4 *14:13 0.0128445
5 *14:11 0.0371668
6 *14:10 0.0385348
7 *419:io_in[21] *38:22 0
8 *419:io_in[21] *49:11 0.000981031
9 *419:io_in[21] *52:7 0.000295102
10 *419:io_in[21] *89:13 0.00205444
11 *14:10 *90:14 0.000254726
12 *14:14 *41:10 0.00818792
13 *14:14 *94:16 0.0136846
*RES
1 io_in[21] *14:10 19.935 
2 *14:10 *14:11 285.57 
3 *14:11 *14:13 4.5 
4 *14:13 *14:14 126.45 
5 *14:14 *419:io_in[21] 28.575 
*END

*D_NET *15 0.174156
*CONN
*P io_in[22] I
*I *419:io_in[22] I *D wrapped_multiplier_8
*CAP
1 io_in[22] 0.000493306
2 *419:io_in[22] 0.000213225
3 *15:11 0.0387495
4 *15:10 0.0385363
5 *15:8 0.0156143
6 *15:7 0.0161076
7 *419:io_in[22] *53:9 7.67336e-05
8 *419:io_in[22] *90:7 0.000190979
9 *15:8 *16:8 0.0417062
10 *15:8 *45:14 0.000289988
11 *15:8 *84:14 0.00293698
12 *15:11 *49:11 0
13 *15:11 *53:9 0.00162685
14 *15:11 *90:7 0.000241446
15 *15:11 *91:13 0.0116576
16 *8:8 *15:8 0.00124685
17 *9:16 *15:8 0.00446785
*RES
1 io_in[22] *15:7 8.145 
2 *15:7 *15:8 237.15 
3 *15:8 *15:10 4.5 
4 *15:10 *15:11 313.11 
5 *15:11 *419:io_in[22] 2.205 
*END

*D_NET *16 0.193383
*CONN
*P io_in[23] I
*I *419:io_in[23] I *D wrapped_multiplier_8
*CAP
1 io_in[23] 0.000431381
2 *419:io_in[23] 0.0402001
3 *16:10 0.0402001
4 *16:8 0.0303433
5 *16:7 0.0307747
6 *419:io_in[23] *53:9 0
7 *419:io_in[23] *54:9 0.0042328
8 *419:io_in[23] *91:13 7.91957e-05
9 *419:io_in[23] *92:13 0
10 *9:16 *16:8 0.00541553
11 *15:8 *16:8 0.0417062
*RES
1 io_in[23] *16:7 7.785 
2 *16:7 *16:8 345.87 
3 *16:8 *16:10 4.5 
4 *16:10 *419:io_in[23] 314.685 
*END

*D_NET *17 0.218842
*CONN
*P io_in[24] I
*I *419:io_in[24] I *D wrapped_multiplier_8
*CAP
1 io_in[24] 0.00117627
2 *419:io_in[24] 0.00124002
3 *17:11 0.0495655
4 *17:10 0.0483255
5 *17:8 0.0383168
6 *17:7 0.0394931
7 *419:io_in[24] *55:7 0.000636988
8 *419:io_in[24] *92:13 0.000208969
9 *17:11 *37:15 0.00100861
10 *17:11 *55:10 0.000885703
11 *17:11 *90:8 0.0379846
*RES
1 io_in[24] *17:7 13.365 
2 *17:7 *17:8 294.39 
3 *17:8 *17:10 4.5 
4 *17:10 *17:11 427.59 
5 *17:11 *419:io_in[24] 14.445 
*END

*D_NET *18 0.19541
*CONN
*P io_in[25] I
*I *419:io_in[25] I *D wrapped_multiplier_8
*CAP
1 io_in[25] 0.00410894
2 *419:io_in[25] 0.00098291
3 *18:19 0.0496559
4 *18:18 0.048673
5 *18:16 0.0297161
6 *18:15 0.033825
7 *419:io_in[25] *55:7 0
8 *419:io_in[25] *56:7 0.000357356
9 *419:io_in[25] *93:7 0.00031546
10 *18:19 *56:10 0.0159931
11 *18:19 *66:8 0
12 *18:19 *79:10 3.63629e-05
13 *3:11 *18:19 0.011746
*RES
1 io_in[25] *18:15 31.005 
2 *18:15 *18:16 228.15 
3 *18:16 *18:18 4.5 
4 *18:18 *18:19 413.55 
5 *18:19 *419:io_in[25] 11.925 
*END

*D_NET *19 0.172743
*CONN
*P io_in[26] I
*I *419:io_in[26] I *D wrapped_multiplier_8
*CAP
1 io_in[26] 0.00194183
2 *419:io_in[26] 0.00182777
3 *19:11 0.0533172
4 *19:10 0.0514894
5 *19:8 0.0191757
6 *19:7 0.0211175
7 *419:io_in[26] *20:16 0.0015476
8 *419:io_in[26] *57:7 0.000125409
9 *419:io_in[26] *94:13 0.00186197
10 *19:8 *54:13 0
11 *19:11 *40:10 0.0132323
12 *19:11 *85:10 0.00710656
*RES
1 io_in[26] *19:7 18.765 
2 *19:7 *19:8 147.33 
3 *19:8 *19:10 4.5 
4 *19:10 *19:11 426.15 
5 *19:11 *419:io_in[26] 25.875 
*END

*D_NET *20 0.14284
*CONN
*P io_in[27] I
*I *419:io_in[27] I *D wrapped_multiplier_8
*CAP
1 io_in[27] 0.00035683
2 *419:io_in[27] 0.000669433
3 *20:16 0.0119426
4 *20:15 0.0112731
5 *20:13 0.0566878
6 *20:11 0.0570446
7 *419:io_in[27] *57:7 0
8 *419:io_in[27] *58:9 0.000967844
9 *419:io_in[27] *66:8 0.000820354
10 *419:io_in[27] *95:7 0.000309304
11 *20:16 *57:7 0.00100699
12 *20:16 *94:13 7.37439e-05
13 *419:io_in[26] *20:16 0.0015476
14 *3:11 *419:io_in[27] 0.000139372
*RES
1 io_in[27] *20:11 3.015 
2 *20:11 *20:13 440.91 
3 *20:13 *20:15 4.5 
4 *20:15 *20:16 91.53 
5 *20:16 *419:io_in[27] 17.415 
*END

*D_NET *21 0.162132
*CONN
*P io_in[28] I
*I *419:io_in[28] I *D wrapped_multiplier_8
*CAP
1 io_in[28] 0.00388227
2 *419:io_in[28] 0.0019825
3 *21:19 0.0636844
4 *21:18 0.0640366
5 *21:15 0.006217
6 *419:io_in[28] *58:9 0
7 *419:io_in[28] *96:7 0.000303148
8 *419:io_in[28] *97:7 0
9 *21:15 *58:10 0
10 *21:19 *51:10 0.00940105
11 *21:19 *75:8 0
12 *5:11 *21:19 0.0126252
*RES
1 io_in[28] *21:15 34.785 
2 *21:15 *21:18 22.05 
3 *21:18 *21:19 417.33 
4 *21:19 *419:io_in[28] 17.325 
*END

*D_NET *22 0.161662
*CONN
*P io_in[29] I
*I *419:io_in[29] I *D wrapped_multiplier_8
*CAP
1 io_in[29] 0.00341429
2 *419:io_in[29] 0.000104352
3 *22:19 0.0461148
4 *22:18 0.0509726
5 *22:15 0.00837647
6 *419:io_in[29] *97:7 4.85853e-05
7 *419:io_in[29] *98:10 0
8 *22:19 *29:19 0.0288166
9 *22:19 *39:12 0
10 *22:19 *77:8 0.0238141
*RES
1 io_in[29] *22:15 31.545 
2 *22:15 *22:18 42.57 
3 *22:18 *22:19 422.19 
4 *22:19 *419:io_in[29] 5.265 
*END

*D_NET *23 0.272148
*CONN
*P io_in[2] I
*I *419:io_in[2] I *D wrapped_multiplier_8
*CAP
1 io_in[2] 0.000167227
2 *419:io_in[2] 0.000110004
3 *23:16 0.0459399
4 *23:15 0.0458299
5 *23:13 0.0722932
6 *23:11 0.0724604
7 *419:io_in[2] *59:13 4.94455e-05
8 *419:io_in[2] *77:8 0
9 *23:16 *50:11 0
10 *23:16 *61:11 0.0352977
11 *23:16 *99:11 0
*RES
1 io_in[2] *23:11 2.115 
2 *23:11 *23:13 567.27 
3 *23:13 *23:15 4.5 
4 *23:15 *23:16 500.85 
5 *23:16 *419:io_in[2] 9.855 
*END

*D_NET *24 0.172633
*CONN
*P io_in[30] I
*I *419:io_in[30] I *D wrapped_multiplier_8
*CAP
1 io_in[30] 0.00117627
2 *419:io_in[30] 0.000131457
3 *24:11 0.0486531
4 *24:10 0.0485217
5 *24:8 0.0132747
6 *24:7 0.0144509
7 *419:io_in[30] *62:11 7.53699e-05
8 *419:io_in[30] *76:27 1.18492e-05
9 *419:io_in[30] *101:11 3.1138e-05
10 *24:11 *419:io_in[33] 0.000100981
11 *24:11 *27:19 0.0284625
12 *24:11 *30:11 0
13 *24:11 *35:11 0.00353237
14 *24:11 *59:13 0.00124685
15 *24:11 *60:9 0
16 *7:14 *24:11 0.0129642
*RES
1 io_in[30] *24:7 13.365 
2 *24:7 *24:8 101.97 
3 *24:8 *24:10 4.5 
4 *24:10 *24:11 440.55 
5 *24:11 *419:io_in[30] 14.67 
*END

*D_NET *25 0.189924
*CONN
*P io_in[31] I
*I *419:io_in[31] I *D wrapped_multiplier_8
*CAP
1 io_in[31] 0.00177706
2 *419:io_in[31] 0.000905559
3 *25:15 0.00300807
4 *25:14 0.00210251
5 *25:12 0.0226051
6 *25:11 0.0226051
7 *25:9 0.0465634
8 *25:7 0.0483405
9 *419:io_in[31] *29:19 2.36064e-05
10 *419:io_in[31] *38:22 0.00816637
11 *25:15 *419:io_in[9] 0.0100473
12 *25:15 *29:19 0.0201138
13 *4:11 *419:io_in[31] 0.00364905
14 *4:11 *25:15 1.68787e-05
*RES
1 io_in[31] *25:7 13.185 
2 *25:7 *25:9 365.94 
3 *25:9 *25:11 4.5 
4 *25:11 *25:12 173.43 
5 *25:12 *25:14 4.5 
6 *25:14 *25:15 51.39 
7 *25:15 *419:io_in[31] 37.035 
*END

*D_NET *26 0.198659
*CONN
*P io_in[32] I
*I *419:io_in[32] I *D wrapped_multiplier_8
*CAP
1 io_in[32] 0.000323383
2 *419:io_in[32] 0
3 *26:16 0.00650761
4 *26:15 0.00650761
5 *26:13 0.0581802
6 *26:11 0.0585036
7 *26:16 *64:6 0.0228037
8 *26:16 *102:11 0.0458329
*RES
1 io_in[32] *26:11 3.015 
2 *26:11 *26:13 453.69 
3 *26:13 *26:15 4.5 
4 *26:15 *26:16 241.65 
5 *26:16 *419:io_in[32] 9 
*END

*D_NET *27 0.23697
*CONN
*P io_in[33] I
*I *419:io_in[33] I *D wrapped_multiplier_8
*CAP
1 io_in[33] 0.000242542
2 *419:io_in[33] 0.00068389
3 *27:19 0.0014353
4 *27:18 0.000751407
5 *27:16 0.0400901
6 *27:15 0.0400901
7 *27:13 0.047973
8 *27:11 0.0482155
9 *419:io_in[33] *60:8 0.000249256
10 *419:io_in[33] *62:10 0.000453587
11 *419:io_in[33] *62:11 6.79716e-05
12 *419:io_in[33] *63:10 0.000319365
13 *419:io_in[33] *76:27 0.000482358
14 *419:io_in[33] *77:8 0
15 *419:io_in[33] *101:10 0.000249627
16 *419:io_in[33] *102:10 0.000257568
17 *27:19 *59:12 0.000141209
18 *27:19 *59:13 0.0175192
19 *27:19 *76:14 0.00916616
20 *7:14 *419:io_in[33] 1.83299e-05
21 *24:11 *419:io_in[33] 0.000100981
22 *24:11 *27:19 0.0284625
*RES
1 io_in[33] *27:11 2.475 
2 *27:11 *27:13 376.11 
3 *27:13 *27:15 4.5 
4 *27:15 *27:16 308.43 
5 *27:16 *27:18 4.5 
6 *27:18 *27:19 72.09 
7 *27:19 *419:io_in[33] 22.275 
*END

*D_NET *28 0.211066
*CONN
*P io_in[34] I
*I *419:io_in[34] I *D wrapped_multiplier_8
*CAP
1 io_in[34] 0.000177869
2 *419:io_in[34] 0.000116892
3 *28:16 0.0410797
4 *28:15 0.0409628
5 *28:13 0.0584883
6 *28:11 0.0586662
7 *419:io_in[34] *76:27 2.75826e-05
8 *419:io_in[34] *77:8 0
9 *28:16 *65:11 0
10 *28:16 *103:11 0.011547
*RES
1 io_in[34] *28:11 1.935 
2 *28:11 *28:13 457.29 